
   --- Expanded Deck Component Count ---
C's 1
D's 4
R's 2
V's 1
tot: 8


    --- Expanded Netlist ---
* C:\Users\user\Desktop\python_spice\cfl_lamp\cfl_equiv.asc
r1 n001 0 1884.875536736095
d1 n003 n001 d
d2 n004 n001 d
d3 0 n003 d
d4 0 n004 d
c1 n001 0 1.011305268940261e-05
r2 n002 n003 34.97863584344243
v1 n002 n004 sine(0 170.83060321432882 60 0 0 -240.84000000000003)
.model d d
.tran 0 0.0512
.options maxstep=1.25-5
.end

<<<<<<< HEAD
Direct Newton iteration for .op point succeeded.

Date: Thu Nov 05 18:11:28 2020
Total elapsed time: 0.109 seconds.

tnom = 27
temp = 27
method = modified trap
totiter = 642
traniter = 628
tranpoints = 158
accept = 121
rejected = 37
matrix size = 5
fillins = 5
solver = Normal
Matrix Compiler1: 398 bytes object code size  0.2/0.1/[0.1]
Matrix Compiler2: off  [0.1]/0.2/0.1

=======
>>>>>>> 877cf33fd218bf9aebf66dea680329ed11a3bdc1
