Circuit: * C:\Users\user\Desktop\python_spice\cfl_lamp\cfl_equiv.asc

.OP point found by inspection.

Date: Mon May 11 19:35:47 2020
Total elapsed time: 0.371 seconds.

tnom = 27
temp = 27
method = modified trap
totiter = 3079
traniter = 3079
tranpoints = 1166
accept = 1134
rejected = 32
matrix size = 5
fillins = 3
solver = Normal
Matrix Compiler1: 342 bytes object code size  0.2/0.2/[0.1]
Matrix Compiler2: 403 bytes object code size  0.1/0.2/[0.1]

