Circuit: * C:\Users\user\Desktop\python_spice\cfl_lamp\cfl_equiv.asc

Direct Newton iteration for .op point succeeded.

Date: Mon May 18 17:41:58 2020
Total elapsed time: 0.218 seconds.

tnom = 27
temp = 27
method = modified trap
totiter = 574
traniter = 562
tranpoints = 160
accept = 118
rejected = 42
matrix size = 5
fillins = 5
solver = Normal
Matrix Compiler1: 398 bytes object code size  0.1/0.1/[0.0]
Matrix Compiler2: off  [0.1]/0.1/0.1

