Circuit: * C:\Users\user\Desktop\python_spice\cfl_lamp\cfl_equiv.asc

Direct Newton iteration for .op point succeeded.

Date: Thu Nov 05 09:32:01 2020
Total elapsed time: 0.260 seconds.

tnom = 27
temp = 27
method = modified trap
totiter = 612
traniter = 603
tranpoints = 178
accept = 131
rejected = 47
matrix size = 5
fillins = 3
solver = Normal
Matrix Compiler1: 342 bytes object code size  0.1/0.1/[0.1]
Matrix Compiler2: 403 bytes object code size  0.1/0.1/[0.1]

