Circuit: * C:\Users\user\Desktop\python_spice\cfl_lamp\cfl_equiv.asc

Direct Newton iteration for .op point succeeded.

Date: Thu Nov 26 12:16:58 2020
Total elapsed time: 0.192 seconds.

tnom = 27
temp = 27
method = modified trap
totiter = 647
traniter = 633
tranpoints = 155
accept = 119
rejected = 36
matrix size = 5
fillins = 5
solver = Normal
Matrix Compiler1: 398 bytes object code size  0.1/0.1/[0.1]
Matrix Compiler2: 437 bytes object code size  0.1/0.1/[0.1]

