Circuit: * C:\Users\user\Desktop\python_spice\cfl_lamp\cfl_equiv.asc

Direct Newton iteration for .op point succeeded.

Date: Wed Jan 13 17:43:47 2021
Total elapsed time: 0.184 seconds.

tnom = 27
temp = 27
method = modified trap
totiter = 650
traniter = 636
tranpoints = 160
accept = 122
rejected = 38
matrix size = 5
fillins = 5
solver = Normal
Matrix Compiler1: 398 bytes object code size  0.1/0.1/[0.1]
Matrix Compiler2: 437 bytes object code size  0.1/0.1/[0.0]

