Circuit: * C:\Users\user\Desktop\python_spice\cfl_lamp\cfl_equiv.asc

Direct Newton iteration for .op point succeeded.

Date: Thu May 14 18:12:39 2020
Total elapsed time: 0.347 seconds.

tnom = 27
temp = 27
method = modified trap
totiter = 8396
traniter = 8384
tranpoints = 4117
accept = 4116
rejected = 1
matrix size = 5
fillins = 4
solver = Normal
Matrix Compiler1: 378 bytes object code size  0.1/0.1/[0.1]
Matrix Compiler2: off  [0.1]/0.1/0.1

