Circuit: * C:\Users\user\Desktop\python_spice\cfl_lamp\cfl_equiv.asc

Direct Newton iteration for .op point succeeded.

Date: Mon May 18 18:43:38 2020
Total elapsed time: 0.229 seconds.

tnom = 27
temp = 27
method = modified trap
totiter = 608
traniter = 596
tranpoints = 154
accept = 113
rejected = 41
matrix size = 5
fillins = 5
solver = Normal
Matrix Compiler1: 398 bytes object code size  0.1/0.1/[0.1]
Matrix Compiler2:      34 opcodes  0.1/[0.1]/0.1

