Circuit: * C:\Users\user\Desktop\python_spice\cfl_lamp\cfl_equiv.asc

Direct Newton iteration for .op point succeeded.

Date: Sat Sep 12 11:19:48 2020
Total elapsed time: 0.216 seconds.

tnom = 27
temp = 27
method = modified trap
totiter = 634
traniter = 627
tranpoints = 182
accept = 134
rejected = 48
matrix size = 5
fillins = 3
solver = Normal
Matrix Compiler1: 342 bytes object code size  0.1/0.1/[0.1]
Matrix Compiler2: 403 bytes object code size  0.1/0.1/[0.1]

