Circuit: * C:\Users\user\Desktop\python_spice\cfl_lamp\cfl_equiv.asc

Direct Newton iteration for .op point succeeded.
Heightened Def Con from 0.000570578 to 0.000570579
Heightened Def Con from 0.000570583 to 0.000570585
Heightened Def Con from 0.000570585 to 0.000570586
Heightened Def Con from 0.000570586 to 0.000570588
Heightened Def Con from 0.000570588 to 0.00057059
Heightened Def Con from 0.00057059 to 0.00057059
Heightened Def Con from 0.00057059 to 0.000570592
Heightened Def Con from 0.000570593 to 0.000570595
Heightened Def Con from 0.000570597 to 0.000570598
Heightened Def Con from 0.000570598 to 0.000570598
Heightened Def Con from 0.000570598 to 0.000570599
Heightened Def Con from 0.000570599 to 0.000570599
Heightened Def Con from 0.000570599 to 0.0005706
Heightened Def Con from 0.0005706 to 0.000570601
Heightened Def Con from 0.000570601 to 0.000570601
Heightened Def Con from 0.000570601 to 0.000570601
Heightened Def Con from 0.000570601 to 0.000570601
Heightened Def Con from 0.000570601 to 0.000570601
Heightened Def Con from 0.000570601 to 0.000570602
Heightened Def Con from 0.000570605 to 0.000570606
Heightened Def Con from 0.00057061 to 0.000570612
Heightened Def Con from 0.000570613 to 0.000570615
Heightened Def Con from 0.000570616 to 0.000570617
Heightened Def Con from 0.000570619 to 0.00057062
Heightened Def Con from 0.000570696 to 0.000570698
Heightened Def Con from 0.00695635 to 0.00695635
Heightened Def Con from 0.00695635 to 0.00695635
Heightened Def Con from 0.00695635 to 0.00695635
Heightened Def Con from 0.00695635 to 0.00695635
Heightened Def Con from 0.00695635 to 0.00695635
Heightened Def Con from 0.00695635 to 0.00695635
Heightened Def Con from 0.00695635 to 0.00695635
Heightened Def Con from 0.00695635 to 0.00695635
Heightened Def Con from 0.00695635 to 0.00695635
Heightened Def Con from 0.00695635 to 0.00695635
Heightened Def Con from 0.00695636 to 0.00695636
Heightened Def Con from 0.00695636 to 0.00695636
Heightened Def Con from 0.00695636 to 0.00695636
Heightened Def Con from 0.00695636 to 0.00695636
Heightened Def Con from 0.00695636 to 0.00695636
Heightened Def Con from 0.00695636 to 0.00695636
Heightened Def Con from 0.00695636 to 0.00695636
Heightened Def Con from 0.00695636 to 0.00695636
Heightened Def Con from 0.00695636 to 0.00695636
Heightened Def Con from 0.00695636 to 0.00695636
Heightened Def Con from 0.00695636 to 0.00695636
Heightened Def Con from 0.00695636 to 0.00695636
Heightened Def Con from 0.00695637 to 0.00695637
Heightened Def Con from 0.00695637 to 0.00695637
Heightened Def Con from 0.00695637 to 0.00695637
Heightened Def Con from 0.00695637 to 0.00695637
Heightened Def Con from 0.00695637 to 0.00695637
Heightened Def Con from 0.00695637 to 0.00695637
Heightened Def Con from 0.00695637 to 0.00695637
Heightened Def Con from 0.00695637 to 0.00695638
Heightened Def Con from 0.00695638 to 0.00695638
Heightened Def Con from 0.00695638 to 0.00695638
Heightened Def Con from 0.00695638 to 0.00695638
Heightened Def Con from 0.00695638 to 0.00695638
Heightened Def Con from 0.00695638 to 0.00695638
Heightened Def Con from 0.00695638 to 0.00695638
Heightened Def Con from 0.00695638 to 0.00695638
Heightened Def Con from 0.00695638 to 0.00695638
Heightened Def Con from 0.00695638 to 0.00695638
Heightened Def Con from 0.00695638 to 0.00695638
Heightened Def Con from 0.00695638 to 0.00695638
Heightened Def Con from 0.00695639 to 0.00695639
Heightened Def Con from 0.00695639 to 0.0069564
Heightened Def Con from 0.0069564 to 0.0069564
Heightened Def Con from 0.0069564 to 0.0069564
Heightened Def Con from 0.0069564 to 0.0069564
Heightened Def Con from 0.0069564 to 0.0069564
Heightened Def Con from 0.0069564 to 0.0069564
Heightened Def Con from 0.0069564 to 0.0069564
Heightened Def Con from 0.0069564 to 0.0069564
Heightened Def Con from 0.0069564 to 0.0069564
Heightened Def Con from 0.0069564 to 0.0069564
Heightened Def Con from 0.0069564 to 0.00695641
Heightened Def Con from 0.00695641 to 0.00695641
Heightened Def Con from 0.00695644 to 0.00695644
Heightened Def Con from 0.00695644 to 0.00695644
Heightened Def Con from 0.00695644 to 0.00695644
Heightened Def Con from 0.00695644 to 0.00695644
Heightened Def Con from 0.00695645 to 0.00695645
Heightened Def Con from 0.00695645 +to 0.00695645
Heightened Def Con from 0.00695645 to 0.00695645
Heightened Def Con from 0.0069565 to 0.0069565
Heightened Def Con from 0.0069565 to 0.0069565
Heightened Def Con from 0.0069565 to 0.0069565
Heightened Def Con from 0.0069565 to 0.0069565
Heightened Def Con from 0.0069565 to 0.0069565
Heightened Def Con from 0.0069565 to 0.0069565
Heightened Def Con from 0.0069565 to 0.0069565
Heightened Def Con from 0.0069565 to 0.0069565
Heightened Def Con from 0.0069565 to 0.00695651
Heightened Def Con from 0.00695651 to 0.00695651
Heightened Def Con from 0.00695651 to 0.00695651
Heightened Def Con from 0.00695651 to 0.00695651
Heightened Def Con from 0.00695651 to 0.00695651
Heightened Def Con from 0.00695651 to 0.00695652
Heightened Def Con from 0.00695652 to 0.00695652
Heightened Def Con from 0.00695652 to 0.00695652
Heightened Def Con from 0.00695652 +to 0.00695652
Heightened Def Con from 0.00695652 to 0.00695652
Heightened Def Con from 0.00695653 to 0.00695653
Heightened Def Con from 0.00695653 to 0.00695653
Heightened Def Con from 0.00695653 to 0.00695653
Heightened Def Con from 0.00695653 to 0.00695653
Heightened Def Con from 0.00695653 to 0.00695653
Heightened Def Con from 0.00695653 to 0.00695653
Heightened Def Con from 0.00695653 to 0.00695653
Heightened Def Con from 0.00695653 to 0.00695653
Heightened Def Con from 0.00695653 to 0.00695653
Heightened Def Con from 0.00695654 to 0.00695654
Heightened Def Con from 0.00695654 to 0.00695654
Heightened Def Con from 0.00695656 to 0.00695656
Heightened Def Con from 0.00695656 to 0.00695656
Heightened Def Con from 0.00695656 to 0.00695656
Heightened Def Con from 0.00695656 to 0.00695656
Heightened Def Con from 0.00695656 to 0.00695656
Heightened Def Con from 0.00695656 to 0.00695656
Heightened Def Con from 0.00695656 to 0.00695657
Heightened Def Con from 0.00695657 +to 0.00695657
Heightened Def Con from 0.00695657 to 0.00695657
Heightened Def Con from 0.00695657 to 0.00695658
Heightened Def Con from 0.00695658 to 0.00695658
Heightened Def Con from 0.00695658 to 0.00695658
Heightened Def Con from 0.00695659 to 0.00695659
Heightened Def Con from 0.00695659 to 0.00695659
Heightened Def Con from 0.00695659 to 0.00695659
Heightened Def Con from 0.00695659 to 0.00695659
Heightened Def Con from 0.00695659 to 0.00695659
Heightened Def Con from 0.00695659 to 0.00695659
Heightened Def Con from 0.00695659 to 0.00695659
Heightened Def Con from 0.00695659 to 0.00695659
Heightened Def Con from 0.00695659 to 0.00695659
Heightened Def Con from 0.00695659 to 0.00695659
Heightened Def Con from 0.00695659 to 0.00695659
Heightened Def Con from 0.00695659 to 0.00695659
Heightened Def Con from 0.00695659 to 0.00695659
Heightened Def Con from 0.00695659 to 0.00695659
Heightened Def Con from 0.00695659 to 0.00695659
Heightened Def Con from 0.00695659 to 0.00695659
Heightened Def Con from 0.00695659 +to 0.00695659
Heightened Def Con from 0.00695659 +to 0.00695659
Heightened Def Con from 0.00695659 +to 0.00695659
Heightened Def Con from 0.00695659 +to 0.00695659
Heightened Def Con from 0.00695659 +to 0.00695659
Heightened Def Con from 0.00695659 +to 0.00695659
Heightened Def Con from 0.00695659 +to 0.00695659
Heightened Def Con from 0.00695659 to 0.00695659
Heightened Def Con from 0.00695659 to 0.00695659
Heightened Def Con from 0.00695659 to 0.00695659
Heightened Def Con from 0.00695659 +to 0.00695659
Heightened Def Con from 0.00695659 +to 0.00695659
Heightened Def Con from 0.00695659 to 0.0069566
Heightened Def Con from 0.00695662 to 0.00695662
Heightened Def Con from 0.00695662 to 0.00695662
Heightened Def Con from 0.00695662 to 0.00695662
Heightened Def Con from 0.00695663 to 0.00695663
Heightened Def Con from 0.00695663 to 0.00695663
Heightened Def Con from 0.00695663 to 0.00695663
Heightened Def Con from 0.00695663 to 0.00695663
Heightened Def Con from 0.00695663 to 0.00695663
Heightened Def Con from 0.00695663 to 0.00695664
Heightened Def Con from 0.00695664 +to 0.00695664
Heightened Def Con from 0.00695664 to 0.00695664
Heightened Def Con from 0.00695664 to 0.00695664
Heightened Def Con from 0.00695665 to 0.00695665
Heightened Def Con from 0.00695665 to 0.00695665
Heightened Def Con from 0.00695666 to 0.00695666
Heightened Def Con from 0.00695666 to 0.00695666
Heightened Def Con from 0.00695666 to 0.00695666
Heightened Def Con from 0.00695666 to 0.00695666
Heightened Def Con from 0.00695666 to 0.00695666
Heightened Def Con from 0.00695666 to 0.00695667
Heightened Def Con from 0.00695667 to 0.00695667
Heightened Def Con from 0.00695667 to 0.00695667
Heightened Def Con from 0.00695667 to 0.00695667
Heightened Def Con from 0.00695667 to 0.00695667
Heightened Def Con from 0.00695667 to 0.00695667
Heightened Def Con from 0.00695667 to 0.00695667
Heightened Def Con from 0.00695667 to 0.00695667
Heightened Def Con from 0.00695667 to 0.00695667
Heightened Def Con from 0.00695667 to 0.00695667
Heightened Def Con from 0.00695667 to 0.00695667
Heightened Def Con from 0.00695668 to 0.00695668
Heightened Def Con from 0.00695668 to 0.00695668
Heightened Def Con from 0.00695668 to 0.00695668
Heightened Def Con from 0.00695669 to 0.00695669
Heightened Def Con from 0.00695669 to 0.00695669
Heightened Def Con from 0.00695669 to 0.00695669
Heightened Def Con from 0.00695669 to 0.00695669
Heightened Def Con from 0.00695669 to 0.00695669
Heightened Def Con from 0.00695669 to 0.00695669
Heightened Def Con from 0.00695669 to 0.00695669
Heightened Def Con from 0.00695669 to 0.00695669
Heightened Def Con from 0.00695669 to 0.00695669
Heightened Def Con from 0.00695669 to 0.00695669
Heightened Def Con from 0.00695669 to 0.00695669
Heightened Def Con from 0.00695669 to 0.0069567
Heightened Def Con from 0.0069567 to 0.0069567
Heightened Def Con from 0.0069567 to 0.0069567
Heightened Def Con from 0.0069567 to 0.0069567
Heightened Def Con from 0.0069567 to 0.0069567
Heightened Def Con from 0.0069567 to 0.0069567
Heightened Def Con from 0.00695671 to 0.00695671
Heightened Def Con from 0.00695671 to 0.00695671
Heightened Def Con from 0.00695671 to 0.00695671
Heightened Def Con from 0.00695671 to 0.00695671
Heightened Def Con from 0.00695671 to 0.00695671
Heightened Def Con from 0.00695671 to 0.00695671
Heightened Def Con from 0.00695671 to 0.00695671
Heightened Def Con from 0.00695671 to 0.00695671
Heightened Def Con from 0.00695671 to 0.00695671
Heightened Def Con from 0.00695671 to 0.00695671
Heightened Def Con from 0.00695671 to 0.00695671
Heightened Def Con from 0.00695671 to 0.00695671
Heightened Def Con from 0.00695671 to 0.00695671
Heightened Def Con from 0.00695671 to 0.00695671
Heightened Def Con from 0.00695671 to 0.00695671
Heightened Def Con from 0.00695671 to 0.00695672
Heightened Def Con from 0.00695672 to 0.00695672
Heightened Def Con from 0.00695672 to 0.00695672
Heightened Def Con from 0.00695672 to 0.00695672
Heightened Def Con from 0.00695672 to 0.00695672
Heightened Def Con from 0.00695672 to 0.00695672
Heightened Def Con from 0.00695672 to 0.00695672
Heightened Def Con from 0.00695672 to 0.00695672
Heightened Def Con from 0.00695672 to 0.00695672
Heightened Def Con from 0.00695672 to 0.00695672
Heightened Def Con from 0.00695672 to 0.00695673
Heightened Def Con from 0.00695673 to 0.00695673
Heightened Def Con from 0.00695673 to 0.00695673
Heightened Def Con from 0.00695673 to 0.00695673
Heightened Def Con from 0.00695673 to 0.00695673
Heightened Def Con from 0.00695673 to 0.00695674
Heightened Def Con from 0.00695674 to 0.00695674
Heightened Def Con from 0.00695674 to 0.00695674
Heightened Def Con from 0.00695677 to 0.00695677
Heightened Def Con from 0.00695678 to 0.00695678
Heightened Def Con from 0.00695678 to 0.00695678
Heightened Def Con from 0.00695678 to 0.00695678
Heightened Def Con from 0.00695678 to 0.00695678
Heightened Def Con from 0.00695678 to 0.00695678
Heightened Def Con from 0.00695678 to 0.00695678
Heightened Def Con from 0.00695679 to 0.00695679
Heightened Def Con from 0.00695679 to 0.00695679
Heightened Def Con from 0.00695679 to 0.00695679
Heightened Def Con from 0.00695679 to 0.00695679
Heightened Def Con from 0.00695679 to 0.00695679
Heightened Def Con from 0.00695681 to 0.00695681
Heightened Def Con from 0.00695681 to 0.00695681
Heightened Def Con from 0.00695681 to 0.00695681
Heightened Def Con from 0.00695681 to 0.00695681
Heightened Def Con from 0.00695681 to 0.00695681
Heightened Def Con from 0.00695682 to 0.00695682
Heightened Def Con from 0.00695682 to 0.00695682
Heightened Def Con from 0.00695682 to 0.00695682
Heightened Def Con from 0.00695682 to 0.00695682
Heightened Def Con from 0.00695682 to 0.00695682
Heightened Def Con from 0.00695682 to 0.00695682
Heightened Def Con from 0.00695683 +to 0.00695683
Heightened Def Con from 0.00695683 to 0.00695683
Heightened Def Con from 0.00695683 to 0.00695683
Heightened Def Con from 0.00695683 to 0.00695683
Heightened Def Con from 0.00695683 to 0.00695683
Heightened Def Con from 0.00695684 to 0.00695684
Heightened Def Con from 0.00695684 to 0.00695684
Heightened Def Con from 0.00695684 to 0.00695684
Heightened Def Con from 0.00695684 to 0.00695684
Heightened Def Con from 0.00695684 to 0.00695684
Heightened Def Con from 0.00695684 +to 0.00695684
Heightened Def Con from 0.00695684 to 0.00695684
Heightened Def Con from 0.00695684 to 0.00695684
Heightened Def Con from 0.00695684 to 0.00695684
Heightened Def Con from 0.00695686 to 0.00695686
Heightened Def Con from 0.00695686 to 0.00695686
Heightened Def Con from 0.00695686 to 0.00695686
Heightened Def Con from 0.00695688 to 0.00695688
Heightened Def Con from 0.00695688 to 0.00695688
Heightened Def Con from 0.00695688 to 0.00695688
Heightened Def Con from 0.00695688 to 0.00695688
Heightened Def Con from 0.00695689 to 0.00695689
Heightened Def Con from 0.00695689 to 0.00695689
Heightened Def Con from 0.00695689 to 0.00695689
Heightened Def Con from 0.00695689 to 0.00695689
Heightened Def Con from 0.00695689 to 0.0069569
Heightened Def Con from 0.0069569 to 0.0069569
Heightened Def Con from 0.0069569 to 0.0069569
Heightened Def Con from 0.00695691 to 0.00695691
Heightened Def Con from 0.00695691 to 0.00695691
Heightened Def Con from 0.00695691 to 0.00695691
Heightened Def Con from 0.00695691 to 0.00695691
Heightened Def Con from 0.00695692 to 0.00695692
Heightened Def Con from 0.00695694 to 0.00695694
Heightened Def Con from 0.00695694 to 0.00695694
Heightened Def Con from 0.00695694 to 0.00695694
Heightened Def Con from 0.00695694 to 0.00695694
Heightened Def Con from 0.00695695 to 0.00695695
Heightened Def Con from 0.00695698 to 0.00695698
Heightened Def Con from 0.00695698 to 0.00695698
Heightened Def Con from 0.00695699 to 0.00695699
Heightened Def Con from 0.00695699 to 0.00695699
Heightened Def Con from 0.00695699 to 0.00695699
Heightened Def Con from 0.00695699 to 0.00695699
Heightened Def Con from 0.006957 +to 0.006957
Heightened Def Con from 0.00695701 to 0.00695701
Heightened Def Con from 0.00695701 to 0.00695701
Heightened Def Con from 0.00695701 to 0.00695701
Heightened Def Con from 0.00695701 to 0.00695701
Heightened Def Con from 0.00695703 to 0.00695703
Heightened Def Con from 0.00695703 to 0.00695703
Heightened Def Con from 0.00695703 +to 0.00695703
Heightened Def Con from 0.00695703 to 0.00695703
Heightened Def Con from 0.00695703 to 0.00695703
Heightened Def Con from 0.00695703 to 0.00695703
Heightened Def Con from 0.00695703 to 0.00695703
Heightened Def Con from 0.00695703 to 0.00695703
Heightened Def Con from 0.00695703 to 0.00695703
Heightened Def Con from 0.00695703 to 0.00695703
Heightened Def Con from 0.00695703 to 0.00695703
Heightened Def Con from 0.00695703 to 0.00695704
Heightened Def Con from 0.00695704 to 0.00695704
Heightened Def Con from 0.00695704 to 0.00695704
Heightened Def Con from 0.00695704 to 0.00695704
Heightened Def Con from 0.00695704 to 0.00695704
Heightened Def Con from 0.00695704 to 0.00695704
Heightened Def Con from 0.00695704 to 0.00695704
Heightened Def Con from 0.00695704 to 0.00695704
Heightened Def Con from 0.00695704 to 0.00695704
Heightened Def Con from 0.00695704 to 0.00695705
Heightened Def Con from 0.00695705 to 0.00695705
Heightened Def Con from 0.00695705 to 0.00695705
Heightened Def Con from 0.00695705 to 0.00695705
Heightened Def Con from 0.00695705 to 0.00695706
Heightened Def Con from 0.00695706 to 0.00695706
Heightened Def Con from 0.00695706 to 0.00695706
Heightened Def Con from 0.00695706 to 0.00695706
Heightened Def Con from 0.00695707 to 0.00695707
Heightened Def Con from 0.00695707 to 0.00695707
Heightened Def Con from 0.00695707 +to 0.00695707
Heightened Def Con from 0.00695707 to 0.00695707
Heightened Def Con from 0.00695707 to 0.00695707
Heightened Def Con from 0.00695707 to 0.00695707
Heightened Def Con from 0.00695707 to 0.00695707
Heightened Def Con from 0.00695707 to 0.00695707
Heightened Def Con from 0.00695712 to 0.00695712
Heightened Def Con from 0.00695712 to 0.00695712
Heightened Def Con from 0.00695712 to 0.00695712
Heightened Def Con from 0.00695712 to 0.00695712
Heightened Def Con from 0.00695712 to 0.00695712
Heightened Def Con from 0.00695712 to 0.00695712
Heightened Def Con from 0.00695712 to 0.00695712
Heightened Def Con from 0.00695712 to 0.00695712
Heightened Def Con from 0.00695712 to 0.00695712
Heightened Def Con from 0.00695712 to 0.00695712
Heightened Def Con from 0.00695712 to 0.00695712
Heightened Def Con from 0.00695712 to 0.00695712
Heightened Def Con from 0.00695712 to 0.00695712
Heightened Def Con from 0.00695712 to 0.00695713
Heightened Def Con from 0.00695713 to 0.00695713
Heightened Def Con from 0.00695713 to 0.00695713
Heightened Def Con from 0.00695714 to 0.00695714
Heightened Def Con from 0.00695714 to 0.00695714
Heightened Def Con from 0.00695714 to 0.00695714
Heightened Def Con from 0.00695714 to 0.00695715
Heightened Def Con from 0.00695715 to 0.00695715
Heightened Def Con from 0.00695715 to 0.00695715
Heightened Def Con from 0.00695715 to 0.00695715
Heightened Def Con from 0.00695715 to 0.00695715
Heightened Def Con from 0.00695715 to 0.00695716
Heightened Def Con from 0.00695716 to 0.00695717
Heightened Def Con from 0.00695717 to 0.00695717
Heightened Def Con from 0.00695717 to 0.00695718
Heightened Def Con from 0.00695718 to 0.00695718
Heightened Def Con from 0.0069572 to 0.0069572
Heightened Def Con from 0.0069572 to 0.0069572
Heightened Def Con from 0.0069572 to 0.0069572
Heightened Def Con from 0.0069572 to 0.0069572
Heightened Def Con from 0.0069572 to 0.0069572
Heightened Def Con from 0.0069572 to 0.0069572
Heightened Def Con from 0.0069572 to 0.0069572
Heightened Def Con from 0.0069572 to 0.0069572
Heightened Def Con from 0.00695722 to 0.00695722
Heightened Def Con from 0.00695722 to 0.00695722
Heightened Def Con from 0.00695723 to 0.00695723
Heightened Def Con from 0.00695723 to 0.00695723
Heightened Def Con from 0.00695723 to 0.00695723
Heightened Def Con from 0.00695723 to 0.00695723
Heightened Def Con from 0.00695723 to 0.00695723
Heightened Def Con from 0.00695723 to 0.00695723
Heightened Def Con from 0.00695723 to 0.00695723
Heightened Def Con from 0.00695723 to 0.00695724
Heightened Def Con from 0.00695724 to 0.00695724
Heightened Def Con from 0.00695724 to 0.00695724
Heightened Def Con from 0.00695724 to 0.00695724
Heightened Def Con from 0.00695724 to 0.00695725
Heightened Def Con from 0.00695725 to 0.00695725
Heightened Def Con from 0.00695725 to 0.00695725
Heightened Def Con from 0.00695725 to 0.00695725
Heightened Def Con from 0.00695725 to 0.00695725
Heightened Def Con from 0.00695725 to 0.00695725
Heightened Def Con from 0.00695725 to 0.00695725
Heightened Def Con from 0.00695725 to 0.00695726
Heightened Def Con from 0.00695726 to 0.00695726
Heightened Def Con from 0.00695726 to 0.00695726
Heightened Def Con from 0.00695726 to 0.00695726
Heightened Def Con from 0.00695726 to 0.00695726
Heightened Def Con from 0.00695727 to 0.00695727
Heightened Def Con from 0.00695727 to 0.00695727
Heightened Def Con from 0.00695727 to 0.00695727
Heightened Def Con from 0.00695727 to 0.00695728
Heightened Def Con from 0.00695728 to 0.00695728
Heightened Def Con from 0.00695728 to 0.00695728
Heightened Def Con from 0.00695728 to 0.00695728
Heightened Def Con from 0.00695728 to 0.00695728
Heightened Def Con from 0.0069573 to 0.0069573
Heightened Def Con from 0.0069573 to 0.0069573
Heightened Def Con from 0.0069573 to 0.0069573
Heightened Def Con from 0.0069573 to 0.0069573
Heightened Def Con from 0.0069573 to 0.00695731
Heightened Def Con from 0.00899948 to 0.00899948
Heightened Def Con from 0.00899948 to 0.00899948
Heightened Def Con from 0.00899948 to 0.00899948
Heightened Def Con from 0.00899948 to 0.00899949
Heightened Def Con from 0.0089995 to 0.0089995
Heightened Def Con from 0.0089995 to 0.00899951
Heightened Def Con from 0.00899951 to 0.00899951
Heightened Def Con from 0.00899952 to 0.00899952
Heightened Def Con from 0.00899955 to 0.00899955
Heightened Def Con from 0.00899956 to 0.00899956
Heightened Def Con from 0.00899956 to 0.00899956
Heightened Def Con from 0.00899957 to 0.00899957
Heightened Def Con from 0.00899957 to 0.00899957
Heightened Def Con from 0.00899958 to 0.00899958
Heightened Def Con from 0.0089998 to 0.0089998
Heightened Def Con from 0.0089998 to 0.00899981
Heightened Def Con from 0.00899981 to 0.00899981
Heightened Def Con from 0.00899981 to 0.00899981
Heightened Def Con from 0.00899981 to 0.00899982
Heightened Def Con from 0.00899982 to 0.00899982
Heightened Def Con from 0.00899982 to 0.00899982
Heightened Def Con from 0.00899982 to 0.00899982
Heightened Def Con from 0.00899982 to 0.00899983
Heightened Def Con from 0.00899983 to 0.00899983
Heightened Def Con from 0.00899995 to 0.00899995
Heightened Def Con from 0.00899995 to 0.00899995
Heightened Def Con from 0.00899995 to 0.00899995
Heightened Def Con from 0.00899995 to 0.00899995
Heightened Def Con from 0.00899996 to 0.00899996
Heightened Def Con from 0.00899996 to 0.00899996
Heightened Def Con from 0.00899996 to 0.00899996
Heightened Def Con from 0.00899997 to 0.00899997
Heightened Def Con from 0.00899997 to 0.00899997
Heightened Def Con from 0.00899997 to 0.00899997
Heightened Def Con from 0.00899999 to 0.00899999
Heightened Def Con from 0.00899999 to 0.009
Heightened Def Con from 0.009 to 0.009
Heightened Def Con from 0.00900001 to 0.00900001
Heightened Def Con from 0.00900001 to 0.00900001
Heightened Def Con from 0.00900001 to 0.00900001
Heightened Def Con from 0.00900001 to 0.00900001
Heightened Def Con from 0.00900001 to 0.00900001
Heightened Def Con from 0.00900004 to 0.00900005
Heightened Def Con from 0.00900005 to 0.00900005
Heightened Def Con from 0.00900005 to 0.00900005
Heightened Def Con from 0.00900005 to 0.00900005
Heightened Def Con from 0.00900005 to 0.00900005
Heightened Def Con from 0.00900006 to 0.00900006
Heightened Def Con from 0.00900006 to 0.00900006
Heightened Def Con from 0.00900006 to 0.00900006
Heightened Def Con from 0.00900007 to 0.00900007
Heightened Def Con from 0.00900008 to 0.00900008
Heightened Def Con from 0.00900009 to 0.00900009
Heightened Def Con from 0.00900009 to 0.0090001
Heightened Def Con from 0.0090001 to 0.0090001
Heightened Def Con from 0.0090001 to 0.0090001
Heightened Def Con from 0.00900011 to 0.00900011
Heightened Def Con from 0.00900011 to 0.00900011
Heightened Def Con from 0.00900012 to 0.00900012
Heightened Def Con from 0.00900012 to 0.00900012
Heightened Def Con from 0.00900012 to 0.00900012
Heightened Def Con from 0.00900013 to 0.00900013
Heightened Def Con from 0.00900014 to 0.00900014
Heightened Def Con from 0.00900014 to 0.00900014
Heightened Def Con from 0.00900014 to 0.00900014
Heightened Def Con from 0.00900015 to 0.00900015
Heightened Def Con from 0.00900015 to 0.00900015
Heightened Def Con from 0.00900015 to 0.00900016
Heightened Def Con from 0.00900016 to 0.00900016
Heightened Def Con from 0.00900016 to 0.00900016
Heightened Def Con from 0.00900016 to 0.00900016
Heightened Def Con from 0.00900017 to 0.00900017
Heightened Def Con from 0.00900017 to 0.00900017
Heightened Def Con from 0.00900017 to 0.00900017
Heightened Def Con from 0.00900017 to 0.00900018
Heightened Def Con from 0.00900018 to 0.00900018
Heightened Def Con from 0.00900018 to 0.00900018
Heightened Def Con from 0.00900025 to 0.00900025
Heightened Def Con from 0.00900025 to 0.00900025
Heightened Def Con from 0.00900025 to 0.00900025
Heightened Def Con from 0.00900025 to 0.00900025
Heightened Def Con from 0.00900026 to 0.00900026
Heightened Def Con from 0.00900026 to 0.00900026
Heightened Def Con from 0.00900033 to 0.00900033
Heightened Def Con from 0.00900034 to 0.00900034
Heightened Def Con from 0.00900034 to 0.00900034
Heightened Def Con from 0.00900034 to 0.00900034
Heightened Def Con from 0.00900034 to 0.00900034
Heightened Def Con from 0.00900034 to 0.00900034
Heightened Def Con from 0.00900034 to 0.00900034
Heightened Def Con from 0.00900035 to 0.00900035
Heightened Def Con from 0.00900035 to 0.00900035
Heightened Def Con from 0.00900035 to 0.00900035
Heightened Def Con from 0.00900035 to 0.00900035
Heightened Def Con from 0.00900035 to 0.00900035
Heightened Def Con from 0.00900036 to 0.00900036
Heightened Def Con from 0.00900036 to 0.00900036
Heightened Def Con from 0.00900036 to 0.00900036
Heightened Def Con from 0.00900036 to 0.00900036
Heightened Def Con from 0.00900037 to 0.00900037
Heightened Def Con from 0.00900037 to 0.00900037
Heightened Def Con from 0.00900037 to 0.00900038
Heightened Def Con from 0.00900038 to 0.00900038
Heightened Def Con from 0.00900039 to 0.00900039
Heightened Def Con from 0.00900039 to 0.00900039
Heightened Def Con from 0.00900039 to 0.00900039
Heightened Def Con from 0.0090004 to 0.00900041
Heightened Def Con from 0.00900041 to 0.00900041
Heightened Def Con from 0.00900041 to 0.00900041
Heightened Def Con from 0.00900041 to 0.00900041
Heightened Def Con from 0.00900043 to 0.00900043
Heightened Def Con from 0.00900043 to 0.00900043
Heightened Def Con from 0.00900044 to 0.00900044
Heightened Def Con from 0.00900044 to 0.00900044
Heightened Def Con from 0.00900044 to 0.00900045
Heightened Def Con from 0.00900045 to 0.00900045
Heightened Def Con from 0.00900046 to 0.00900046
Heightened Def Con from 0.00900046 to 0.00900046
Heightened Def Con from 0.00900049 to 0.00900049
Heightened Def Con from 0.0090005 to 0.0090005
Heightened Def Con from 0.00900052 to 0.00900052
Heightened Def Con from 0.00900052 to 0.00900052
Heightened Def Con from 0.00900052 to 0.00900052
Heightened Def Con from 0.00900052 to 0.00900052
Heightened Def Con from 0.00900052 to 0.00900053
Heightened Def Con from 0.00900053 to 0.00900053
Heightened Def Con from 0.00900053 to 0.00900053
Heightened Def Con from 0.00900053 to 0.00900053
Heightened Def Con from 0.00900053 to 0.00900053
Heightened Def Con from 0.00900053 to 0.00900053
Heightened Def Con from 0.00900056 to 0.00900057
Heightened Def Con from 0.00900057 to 0.00900057
Heightened Def Con from 0.00900057 to 0.00900057
Heightened Def Con from 0.00900057 to 0.00900057
Heightened Def Con from 0.00900057 to 0.00900058
Heightened Def Con from 0.00900058 to 0.00900058
Heightened Def Con from 0.00900058 to 0.00900058
Heightened Def Con from 0.00900059 to 0.00900059
Heightened Def Con from 0.00900059 to 0.00900059
Heightened Def Con from 0.00900059 to 0.00900059
Heightened Def Con from 0.00900059 to 0.00900059
Heightened Def Con from 0.00900059 to 0.00900059
Heightened Def Con from 0.00900059 to 0.00900059
Heightened Def Con from 0.0090006 to 0.0090006
Heightened Def Con from 0.0090006 to 0.0090006
Heightened Def Con from 0.0090006 to 0.0090006
Heightened Def Con from 0.00900069 to 0.00900069
Heightened Def Con from 0.00900069 to 0.00900069
Heightened Def Con from 0.00900069 to 0.00900069
Heightened Def Con from 0.00900069 to 0.0090007
Heightened Def Con from 0.0090007 to 0.0090007
Heightened Def Con from 0.00900073 to 0.00900073
Heightened Def Con from 0.00900073 to 0.00900073
Heightened Def Con from 0.00900073 to 0.00900073
Heightened Def Con from 0.00900073 to 0.00900074
Heightened Def Con from 0.00900074 to 0.00900074
Heightened Def Con from 0.00900074 to 0.00900074
Heightened Def Con from 0.00900075 to 0.00900075
Heightened Def Con from 0.00900075 to 0.00900075
Heightened Def Con from 0.00900075 to 0.00900075
Heightened Def Con from 0.00900075 to 0.00900075
Heightened Def Con from 0.00900075 to 0.00900075
Heightened Def Con from 0.00900075 to 0.00900075
Heightened Def Con from 0.00900076 to 0.00900076
Heightened Def Con from 0.00900076 to 0.00900076
Heightened Def Con from 0.00900076 to 0.00900076
Heightened Def Con from 0.0090008 to 0.0090008
Heightened Def Con from 0.0090008 to 0.0090008
Heightened Def Con from 0.0090008 to 0.0090008
Heightened Def Con from 0.0090008 to 0.0090008
Heightened Def Con from 0.0090008 to 0.0090008
Heightened Def Con from 0.0090008 to 0.0090008
Heightened Def Con from 0.0090008 to 0.0090008
Heightened Def Con from 0.0090008 to 0.0090008
Heightened Def Con from 0.0090008 to 0.0090008
Heightened Def Con from 0.00900081 to 0.00900081
Heightened Def Con from 0.00900081 to 0.00900081
Heightened Def Con from 0.00900081 to 0.00900081
Heightened Def Con from 0.00900081 to 0.00900081
Heightened Def Con from 0.00900081 to 0.00900082
Heightened Def Con from 0.00900082 to 0.00900082
Heightened Def Con from 0.00900082 to 0.00900082
Heightened Def Con from 0.00900082 to 0.00900082
Heightened Def Con from 0.00900082 to 0.00900082
Heightened Def Con from 0.00900082 to 0.00900083
Heightened Def Con from 0.00900083 to 0.00900083
Heightened Def Con from 0.00900083 to 0.00900083
Heightened Def Con from 0.00900083 to 0.00900083
Heightened Def Con from 0.00900086 to 0.00900086
Heightened Def Con from 0.00900087 to 0.00900087
Heightened Def Con from 0.00900087 to 0.00900087
Heightened Def Con from 0.00900087 to 0.00900087
Heightened Def Con from 0.00900087 to 0.00900087
Heightened Def Con from 0.00900087 to 0.00900087
Heightened Def Con from 0.00900087 to 0.00900087
Heightened Def Con from 0.00900087 to 0.00900088
Heightened Def Con from 0.00900088 to 0.00900088
Heightened Def Con from 0.00900088 to 0.00900088
Heightened Def Con from 0.00900088 to 0.00900088
Heightened Def Con from 0.00900088 to 0.00900088
Heightened Def Con from 0.00900088 to 0.00900088
Heightened Def Con from 0.00900089 to 0.0090009
Heightened Def Con from 0.0090009 to 0.0090009
Heightened Def Con from 0.00900091 to 0.00900091
Heightened Def Con from 0.00900091 to 0.00900091
Heightened Def Con from 0.00900091 to 0.00900091
Heightened Def Con from 0.00900091 to 0.00900091
Heightened Def Con from 0.00900091 +to 0.00900091
Heightened Def Con from 0.00900091 to 0.00900091
Heightened Def Con from 0.00900091 to 0.00900091
Heightened Def Con from 0.00900092 to 0.00900092
Heightened Def Con from 0.00900092 to 0.00900092
Heightened Def Con from 0.00900092 to 0.00900092
Heightened Def Con from 0.00900092 to 0.00900092
Heightened Def Con from 0.00900092 to 0.00900092
Heightened Def Con from 0.00900093 to 0.00900093
Heightened Def Con from 0.00900093 to 0.00900093
Heightened Def Con from 0.00900093 to 0.00900093
Heightened Def Con from 0.00900093 to 0.00900093
Heightened Def Con from 0.00900093 to 0.00900093
Heightened Def Con from 0.00900094 to 0.00900094
Heightened Def Con from 0.00900094 to 0.00900094
Heightened Def Con from 0.00900094 to 0.00900095
Heightened Def Con from 0.00900095 to 0.00900095
Heightened Def Con from 0.00900095 to 0.00900096
Heightened Def Con from 0.00900096 to 0.00900096
Heightened Def Con from 0.00900096 to 0.00900096
Heightened Def Con from 0.00900105 to 0.00900105
Heightened Def Con from 0.00900105 to 0.00900105
Heightened Def Con from 0.00900105 to 0.00900105
Heightened Def Con from 0.00900106 to 0.00900106
Heightened Def Con from 0.00900106 to 0.00900106
Heightened Def Con from 0.00900106 to 0.00900106
Heightened Def Con from 0.00900107 to 0.00900107
Heightened Def Con from 0.00900107 to 0.00900107
Heightened Def Con from 0.00900109 to 0.00900109
Heightened Def Con from 0.00900109 to 0.00900109
Heightened Def Con from 0.00900109 to 0.00900109
Heightened Def Con from 0.00900109 to 0.00900109
Heightened Def Con from 0.00900109 to 0.00900109
Heightened Def Con from 0.00900109 to 0.00900109
Heightened Def Con from 0.00900109 to 0.00900109
Heightened Def Con from 0.00900109 to 0.00900109
Heightened Def Con from 0.00900109 to 0.0090011
Heightened Def Con from 0.0090011 to 0.0090011
Heightened Def Con from 0.0090011 to 0.0090011
Heightened Def Con from 0.0090011 to 0.0090011
Heightened Def Con from 0.0090011 to 0.0090011
Heightened Def Con from 0.0090011 to 0.0090011
Heightened Def Con from 0.0090011 to 0.0090011
Heightened Def Con from 0.0090011 to 0.0090011
Heightened Def Con from 0.00900113 to 0.00900114
Heightened Def Con from 0.00900114 to 0.00900114
Heightened Def Con from 0.00900114 to 0.00900114
Heightened Def Con from 0.00900115 to 0.00900115
Heightened Def Con from 0.00900116 to 0.00900116
Heightened Def Con from 0.00900116 to 0.00900116
Heightened Def Con from 0.00900116 to 0.00900116
Heightened Def Con from 0.00900116 to 0.00900116
Heightened Def Con from 0.00900116 to 0.00900116
Heightened Def Con from 0.00900116 to 0.00900116
Heightened Def Con from 0.00900116 to 0.00900117
Heightened Def Con from 0.00900121 to 0.00900121
Heightened Def Con from 0.00900121 to 0.00900121
Heightened Def Con from 0.00900121 to 0.00900121
Heightened Def Con from 0.00900121 to 0.00900121
Heightened Def Con from 0.00900121 to 0.00900121
Heightened Def Con from 0.00900121 to 0.00900121
Heightened Def Con from 0.00900122 +to 0.00900122
Heightened Def Con from 0.00900122 to 0.00900122
Heightened Def Con from 0.00900122 to 0.00900122
Heightened Def Con from 0.00900124 to 0.00900124
Heightened Def Con from 0.00900124 to 0.00900124
Heightened Def Con from 0.00900124 to 0.00900124
Heightened Def Con from 0.00900124 to 0.00900124
Heightened Def Con from 0.00900124 to 0.00900124
Heightened Def Con from 0.00900124 to 0.00900125
Heightened Def Con from 0.00900125 to 0.00900125
Heightened Def Con from 0.00900125 to 0.00900125
Heightened Def Con from 0.00900126 to 0.00900126
Heightened Def Con from 0.00900126 to 0.00900126
Heightened Def Con from 0.00900126 to 0.00900126
Heightened Def Con from 0.00900126 to 0.00900126
Heightened Def Con from 0.00900126 to 0.00900126
Heightened Def Con from 0.00900126 to 0.00900126
Heightened Def Con from 0.00900126 to 0.00900126
Heightened Def Con from 0.00900127 to 0.00900127
Heightened Def Con from 0.00900127 to 0.00900127
Heightened Def Con from 0.00900127 to 0.00900127
Heightened Def Con from 0.00900127 to 0.00900127
Heightened Def Con from 0.00900127 to 0.00900127
Heightened Def Con from 0.00900127 to 0.00900127
Heightened Def Con from 0.00900127 to 0.00900127
Heightened Def Con from 0.00900127 to 0.00900127
Heightened Def Con from 0.00900128 to 0.00900128
Heightened Def Con from 0.00900128 to 0.00900128
Heightened Def Con from 0.00900128 to 0.00900129
Heightened Def Con from 0.00900129 to 0.00900129
Heightened Def Con from 0.00900129 to 0.00900129
Heightened Def Con from 0.00900129 to 0.00900129
Heightened Def Con from 0.00900129 to 0.00900129
Heightened Def Con from 0.00900129 to 0.00900129
Heightened Def Con from 0.00900129 to 0.00900129
Heightened Def Con from 0.00900129 to 0.00900129
Heightened Def Con from 0.00900129 to 0.00900129
Heightened Def Con from 0.00900129 to 0.00900129
Heightened Def Con from 0.00900129 to 0.00900129
Heightened Def Con from 0.0090013 to 0.0090013
Heightened Def Con from 0.0090013 to 0.0090013
Heightened Def Con from 0.0090013 to 0.0090013
Heightened Def Con from 0.00900132 to 0.00900132
Heightened Def Con from 0.00900132 to 0.00900132
Heightened Def Con from 0.00900266 to 0.00900267
Heightened Def Con from 0.00900267 to 0.00900267
Heightened Def Con from 0.00900268 to 0.00900268
Heightened Def Con from 0.00900268 to 0.00900268
Heightened Def Con from 0.00900268 to 0.00900268
Heightened Def Con from 0.00900268 to 0.00900268
Heightened Def Con from 0.00900268 to 0.00900268
Heightened Def Con from 0.00900268 to 0.00900268
Heightened Def Con from 0.00900271 to 0.00900271
Heightened Def Con from 0.00900271 to 0.00900271
Heightened Def Con from 0.00900271 to 0.00900272
Heightened Def Con from 0.00900272 to 0.00900272
Heightened Def Con from 0.00900272 to 0.00900272
Heightened Def Con from 0.00900272 to 0.00900272
Heightened Def Con from 0.00900272 to 0.00900272
Heightened Def Con from 0.00900273 to 0.00900273
Heightened Def Con from 0.00900273 to 0.00900273
Heightened Def Con from 0.00900273 to 0.00900273
Heightened Def Con from 0.00900273 to 0.00900273
Heightened Def Con from 0.00900273 to 0.00900273
Heightened Def Con from 0.00900285 to 0.00900285
Heightened Def Con from 0.00900288 to 0.00900288
Heightened Def Con from 0.00900288 to 0.00900289
Heightened Def Con from 0.00900289 to 0.00900289
Heightened Def Con from 0.00900289 to 0.00900289
Heightened Def Con from 0.00900289 to 0.00900289
Heightened Def Con from 0.00900289 to 0.00900289
Heightened Def Con from 0.0090029 to 0.0090029
Heightened Def Con from 0.0090029 to 0.0090029
Heightened Def Con from 0.0090029 to 0.0090029
Heightened Def Con from 0.0090029 to 0.0090029
Heightened Def Con from 0.0090029 to 0.0090029
Heightened Def Con from 0.0090029 to 0.0090029
Heightened Def Con from 0.0090029 to 0.0090029
Heightened Def Con from 0.0090029 to 0.0090029
Heightened Def Con from 0.0090029 to 0.0090029
Heightened Def Con from 0.0090029 to 0.0090029
Heightened Def Con from 0.0090029 to 0.0090029
Heightened Def Con from 0.0090029 to 0.0090029
Heightened Def Con from 0.0090029 to 0.0090029
Heightened Def Con from 0.0090029 to 0.00900291
Heightened Def Con from 0.00900291 to 0.00900291
Heightened Def Con from 0.00900291 to 0.00900291
Heightened Def Con from 0.00900291 to 0.00900292
Heightened Def Con from 0.00900292 to 0.00900292
Heightened Def Con from 0.00900292 to 0.00900292
Heightened Def Con from 0.00900292 to 0.00900292
Heightened Def Con from 0.00900292 to 0.00900292
Heightened Def Con from 0.00900293 to 0.00900293
Heightened Def Con from 0.00900293 to 0.00900293
Heightened Def Con from 0.00900293 to 0.00900293
Heightened Def Con from 0.00900293 to 0.00900293
Heightened Def Con from 0.00900293 to 0.00900293
Heightened Def Con from 0.00900294 to 0.00900294
Heightened Def Con from 0.00900294 to 0.00900294
Heightened Def Con from 0.00900294 to 0.00900294
Heightened Def Con from 0.00900296 to 0.00900296
Heightened Def Con from 0.00900296 to 0.00900296
Heightened Def Con from 0.00900296 to 0.00900296
Heightened Def Con from 0.00900296 to 0.00900296
Heightened Def Con from 0.00900296 to 0.00900296
Heightened Def Con from 0.00900296 to 0.00900296
Heightened Def Con from 0.00900296 to 0.00900296
Heightened Def Con from 0.00900296 to 0.00900296
Heightened Def Con from 0.00900296 to 0.00900296
Heightened Def Con from 0.00900296 to 0.00900297
Heightened Def Con from 0.00900297 to 0.00900297
Heightened Def Con from 0.00900297 +to 0.00900298
Heightened Def Con from 0.00900298 to 0.00900298
Heightened Def Con from 0.00900298 to 0.00900298
Heightened Def Con from 0.00900298 to 0.00900298
Heightened Def Con from 0.00900298 to 0.00900298
Heightened Def Con from 0.00900298 to 0.00900298
Heightened Def Con from 0.00900298 to 0.00900298
Heightened Def Con from 0.00900298 to 0.00900298
Heightened Def Con from 0.00900298 to 0.00900298
Heightened Def Con from 0.00900298 to 0.00900298
Heightened Def Con from 0.00900298 to 0.00900298
Heightened Def Con from 0.00900298 to 0.00900298
Heightened Def Con from 0.00900298 to 0.00900299
Heightened Def Con from 0.00900299 to 0.00900299
Heightened Def Con from 0.00900299 to 0.00900299
Heightened Def Con from 0.00900299 to 0.00900299
Heightened Def Con from 0.00900299 to 0.00900299
Heightened Def Con from 0.00900299 to 0.00900299
Heightened Def Con from 0.00900299 to 0.00900299
Heightened Def Con from 0.00900299 to 0.00900299
Heightened Def Con from 0.00900299 to 0.00900299
Heightened Def Con from 0.00900299 to 0.00900299
Heightened Def Con from 0.00900299 to 0.00900299
Heightened Def Con from 0.00900299 to 0.00900299
Heightened Def Con from 0.00900299 to 0.00900299
Heightened Def Con from 0.00900299 to 0.00900299
Heightened Def Con from 0.00900299 to 0.00900299
Heightened Def Con from 0.00900299 to 0.00900299
Heightened Def Con from 0.009003 +to 0.009003
Heightened Def Con from 0.009003 to 0.009003
Heightened Def Con from 0.009003 to 0.009003
Heightened Def Con from 0.009003 to 0.009003
Heightened Def Con from 0.009003 to 0.009003
Heightened Def Con from 0.009003 to 0.009003
Heightened Def Con from 0.00900301 to 0.00900301
Heightened Def Con from 0.00900301 to 0.00900301
Heightened Def Con from 0.00900301 to 0.00900301
Heightened Def Con from 0.00900301 to 0.00900301
Heightened Def Con from 0.00900302 to 0.00900302
Heightened Def Con from 0.00900302 to 0.00900302
Heightened Def Con from 0.00900302 to 0.00900302
Heightened Def Con from 0.00900302 to 0.00900302
Heightened Def Con from 0.00900302 to 0.00900302
Heightened Def Con from 0.00900302 to 0.00900302
Heightened Def Con from 0.00900302 to 0.00900302
Heightened Def Con from 0.00900302 to 0.00900302
Heightened Def Con from 0.00900302 to 0.00900302
Heightened Def Con from 0.00900302 to 0.00900302
Heightened Def Con from 0.00900302 to 0.00900302
Heightened Def Con from 0.00900302 to 0.00900302
Heightened Def Con from 0.00900302 to 0.00900302
Heightened Def Con from 0.00900303 to 0.00900303
Heightened Def Con from 0.00900303 to 0.00900303
Heightened Def Con from 0.00900303 to 0.00900303
Heightened Def Con from 0.00900303 to 0.00900303
Heightened Def Con from 0.00900304 to 0.00900304
Heightened Def Con from 0.00900305 to 0.00900305
Heightened Def Con from 0.00900305 to 0.00900305
Heightened Def Con from 0.00900305 to 0.00900305
Heightened Def Con from 0.00900305 to 0.00900305
Heightened Def Con from 0.00900305 to 0.00900305
Heightened Def Con from 0.00900305 to 0.00900305
Heightened Def Con from 0.00900305 to 0.00900305
Heightened Def Con from 0.00900305 to 0.00900305
Heightened Def Con from 0.00900305 to 0.00900305
Heightened Def Con from 0.00900305 to 0.00900306
Heightened Def Con from 0.00900306 to 0.00900306
Heightened Def Con from 0.00900306 to 0.00900306
Heightened Def Con from 0.00900306 to 0.00900306
Heightened Def Con from 0.00900306 to 0.00900306
Heightened Def Con from 0.00900306 +to 0.00900306
Heightened Def Con from 0.00900306 +to 0.00900306
Heightened Def Con from 0.00900306 to 0.00900306
Heightened Def Con from 0.00900306 to 0.00900306
Heightened Def Con from 0.00900306 to 0.00900306
Heightened Def Con from 0.00900306 to 0.00900306
Heightened Def Con from 0.00900306 to 0.00900306
Heightened Def Con from 0.00900306 to 0.00900306
Heightened Def Con from 0.00900306 to 0.00900306
Heightened Def Con from 0.00900306 to 0.00900306
Heightened Def Con from 0.00900306 to 0.00900306
Heightened Def Con from 0.00900306 to 0.00900306
Heightened Def Con from 0.00900308 to 0.00900308
Heightened Def Con from 0.00900309 to 0.00900309
Heightened Def Con from 0.0090031 to 0.0090031
Heightened Def Con from 0.0090031 to 0.0090031
Heightened Def Con from 0.0090031 to 0.0090031
Heightened Def Con from 0.0090031 to 0.0090031
Heightened Def Con from 0.0090031 to 0.0090031
Heightened Def Con from 0.0090031 to 0.0090031
Heightened Def Con from 0.0090031 to 0.0090031
Heightened Def Con from 0.00900311 to 0.00900311
Heightened Def Con from 0.00900311 to 0.00900311
Heightened Def Con from 0.00900311 to 0.00900311
Heightened Def Con from 0.00900312 to 0.00900312
Heightened Def Con from 0.00900312 to 0.00900312
Heightened Def Con from 0.00900313 to 0.00900313
Heightened Def Con from 0.00900313 to 0.00900313
Heightened Def Con from 0.00900313 to 0.00900314
Heightened Def Con from 0.00900314 to 0.00900314
Heightened Def Con from 0.00900314 to 0.00900314
Heightened Def Con from 0.00900314 to 0.00900314
Heightened Def Con from 0.00900314 to 0.00900314
Heightened Def Con from 0.00900314 to 0.00900314
Heightened Def Con from 0.00900314 to 0.00900314
Heightened Def Con from 0.00900314 to 0.00900314
Heightened Def Con from 0.00900314 to 0.00900314
Heightened Def Con from 0.00900315 to 0.00900315
Heightened Def Con from 0.00900315 to 0.00900315
Heightened Def Con from 0.00900315 to 0.00900315
Heightened Def Con from 0.00900315 to 0.00900315
Heightened Def Con from 0.00900315 to 0.00900315
Heightened Def Con from 0.00900315 to 0.00900315
Heightened Def Con from 0.00900315 to 0.00900316
Heightened Def Con from 0.00900316 to 0.00900316
Heightened Def Con from 0.00900316 to 0.00900316
Heightened Def Con from 0.00900316 to 0.00900316
Heightened Def Con from 0.00900329 to 0.00900329
Heightened Def Con from 0.0090033 to 0.0090033
Heightened Def Con from 0.0090033 to 0.0090033
Heightened Def Con from 0.0090033 to 0.0090033
Heightened Def Con from 0.00900334 to 0.00900334
Heightened Def Con from 0.00900335 to 0.00900335
Heightened Def Con from 0.00900335 to 0.00900335
Heightened Def Con from 0.00900335 to 0.00900335
Heightened Def Con from 0.00900336 to 0.00900336
Heightened Def Con from 0.00900336 to 0.00900336
Heightened Def Con from 0.00900336 to 0.00900337
Heightened Def Con from 0.00900337 to 0.00900337
Heightened Def Con from 0.00900337 to 0.00900337
Heightened Def Con from 0.00900337 to 0.00900337
Heightened Def Con from 0.00900337 to 0.00900337
Heightened Def Con from 0.00900337 to 0.00900337
Heightened Def Con from 0.00900338 to 0.00900338
Heightened Def Con from 0.00900338 to 0.00900338
Heightened Def Con from 0.00900338 to 0.00900338
Heightened Def Con from 0.00900338 to 0.00900338
Heightened Def Con from 0.00900338 to 0.00900338
Heightened Def Con from 0.00900338 to 0.00900338
Heightened Def Con from 0.00900338 to 0.00900339
Heightened Def Con from 0.00900339 to 0.00900339
Heightened Def Con from 0.00900339 to 0.00900339
Heightened Def Con from 0.00900339 to 0.00900339
Heightened Def Con from 0.00900339 to 0.00900339
Heightened Def Con from 0.0090034 to 0.0090034
Heightened Def Con from 0.0090034 to 0.0090034
Heightened Def Con from 0.0090034 to 0.0090034
Heightened Def Con from 0.0090034 to 0.0090034
Heightened Def Con from 0.0090034 to 0.0090034
Heightened Def Con from 0.0090034 to 0.0090034
Heightened Def Con from 0.0090034 to 0.0090034
Heightened Def Con from 0.0090034 to 0.0090034
Heightened Def Con from 0.0090034 to 0.0090034
Heightened Def Con from 0.0090034 to 0.00900341
Heightened Def Con from 0.00900341 to 0.00900341
Heightened Def Con from 0.00900341 to 0.00900341
Heightened Def Con from 0.00900341 to 0.00900342
Heightened Def Con from 0.00900342 to 0.00900342
Heightened Def Con from 0.00900342 to 0.00900342
Heightened Def Con from 0.00900342 +to 0.00900342
Heightened Def Con from 0.00900342 to 0.00900342
Heightened Def Con from 0.00900351 to 0.00900351
Heightened Def Con from 0.00900353 to 0.00900353
Heightened Def Con from 0.00900353 to 0.00900353
Heightened Def Con from 0.00900353 to 0.00900353
Heightened Def Con from 0.00900353 to 0.00900353
Heightened Def Con from 0.00900353 to 0.00900353
Heightened Def Con from 0.00900353 to 0.00900353
Heightened Def Con from 0.00900353 to 0.00900353
Heightened Def Con from 0.00900353 to 0.00900354
Heightened Def Con from 0.00900354 to 0.00900354
Heightened Def Con from 0.00900354 to 0.00900354
Heightened Def Con from 0.00900354 to 0.00900354
Heightened Def Con from 0.00900357 to 0.00900357
Heightened Def Con from 0.00900357 to 0.00900357
Heightened Def Con from 0.00900357 to 0.00900357
Heightened Def Con from 0.00900372 to 0.00900372
Heightened Def Con from 0.00900372 to 0.00900372
Heightened Def Con from 0.00900372 to 0.00900372
Heightened Def Con from 0.00900372 to 0.00900372
Heightened Def Con from 0.00900372 to 0.00900372
Heightened Def Con from 0.00900379 to 0.00900379
Heightened Def Con from 0.00900379 to 0.00900379
Heightened Def Con from 0.00900379 to 0.00900379
Heightened Def Con from 0.00900379 to 0.00900379
Heightened Def Con from 0.00900379 to 0.00900379
Heightened Def Con from 0.00900379 to 0.00900379
Heightened Def Con from 0.00900379 +to 0.0090038
Heightened Def Con from 0.0090038 to 0.0090038
Heightened Def Con from 0.00900381 to 0.00900381
Heightened Def Con from 0.00900381 to 0.00900381
Heightened Def Con from 0.00900381 to 0.00900381
Heightened Def Con from 0.00900381 to 0.00900381
Heightened Def Con from 0.00900381 to 0.00900381
Heightened Def Con from 0.00900381 to 0.00900381
Heightened Def Con from 0.00900381 to 0.00900381
Heightened Def Con from 0.00900381 to 0.00900381
Heightened Def Con from 0.00900381 to 0.00900381
Heightened Def Con from 0.00900381 to 0.00900381
Heightened Def Con from 0.00900381 to 0.00900381
Heightened Def Con from 0.00900382 to 0.00900382
Heightened Def Con from 0.00900382 to 0.00900382
Heightened Def Con from 0.00900382 to 0.00900382
Heightened Def Con from 0.00900382 to 0.00900382
Heightened Def Con from 0.00900382 to 0.00900382
Heightened Def Con from 0.00900383 to 0.00900383
Heightened Def Con from 0.00900383 to 0.00900383
Heightened Def Con from 0.00900384 to 0.00900384
Heightened Def Con from 0.00900384 to 0.00900384
Heightened Def Con from 0.00900384 +to 0.00900384
Heightened Def Con from 0.00900384 to 0.00900384
Heightened Def Con from 0.00900386 to 0.00900386
Heightened Def Con from 0.00900386 to 0.00900386
Heightened Def Con from 0.00900386 to 0.00900386
Heightened Def Con from 0.00900386 +to 0.00900387
Heightened Def Con from 0.00900387 to 0.00900387
Heightened Def Con from 0.00900387 to 0.00900387
Heightened Def Con from 0.00900387 to 0.00900387
Heightened Def Con from 0.00900387 to 0.00900387
Heightened Def Con from 0.00900387 to 0.00900387
Heightened Def Con from 0.00900387 to 0.00900387
Heightened Def Con from 0.00900387 to 0.00900387
Heightened Def Con from 0.00900387 to 0.00900387
Heightened Def Con from 0.00900387 to 0.00900387
Heightened Def Con from 0.00900387 to 0.00900387
Heightened Def Con from 0.00900389 to 0.00900389
Heightened Def Con from 0.0090039 to 0.0090039
Heightened Def Con from 0.0090039 to 0.0090039
Heightened Def Con from 0.0090039 to 0.0090039
Heightened Def Con from 0.0090039 to 0.00900391
Heightened Def Con from 0.00900391 to 0.00900391
Heightened Def Con from 0.00900391 to 0.00900391
Heightened Def Con from 0.00900391 to 0.00900391
Heightened Def Con from 0.00900391 to 0.00900392
Heightened Def Con from 0.00900392 to 0.00900392
Heightened Def Con from 0.00900392 to 0.00900392
Heightened Def Con from 0.00900392 to 0.00900392
Heightened Def Con from 0.00900392 to 0.00900392
Heightened Def Con from 0.00900392 to 0.00900392
Heightened Def Con from 0.00900392 to 0.00900392
Heightened Def Con from 0.00900393 to 0.00900393
Heightened Def Con from 0.00900393 to 0.00900393
Heightened Def Con from 0.00900393 to 0.00900393
Heightened Def Con from 0.00900394 to 0.00900394
Heightened Def Con from 0.00900395 to 0.00900395
Heightened Def Con from 0.00900395 to 0.00900396
Heightened Def Con from 0.00900408 to 0.00900408
Heightened Def Con from 0.00900408 to 0.00900409
Heightened Def Con from 0.00900409 to 0.00900409
Heightened Def Con from 0.00900409 to 0.00900409
Heightened Def Con from 0.0090041 to 0.0090041
Heightened Def Con from 0.0090041 to 0.0090041
Heightened Def Con from 0.0090041 to 0.0090041
Heightened Def Con from 0.0090041 to 0.0090041
Heightened Def Con from 0.0090041 to 0.0090041
Heightened Def Con from 0.0090041 to 0.0090041
Heightened Def Con from 0.0090041 to 0.0090041
Heightened Def Con from 0.00900411 to 0.00900411
Heightened Def Con from 0.00900411 to 0.00900412
Heightened Def Con from 0.00900412 to 0.00900412
Heightened Def Con from 0.00900412 to 0.00900412
Heightened Def Con from 0.00900412 to 0.00900412
Heightened Def Con from 0.00900413 to 0.00900413
Heightened Def Con from 0.00900413 to 0.00900413
Heightened Def Con from 0.00900413 to 0.00900413
Heightened Def Con from 0.00900413 to 0.00900413
Heightened Def Con from 0.00900413 to 0.00900413
Heightened Def Con from 0.00900413 to 0.00900413
Heightened Def Con from 0.00900413 to 0.00900413
Heightened Def Con from 0.00900413 to 0.00900414
Heightened Def Con from 0.00900414 to 0.00900414
Heightened Def Con from 0.00900414 to 0.00900414
Heightened Def Con from 0.00900414 to 0.00900414
Heightened Def Con from 0.0090042 to 0.0090042
Heightened Def Con from 0.0090042 to 0.0090042
Heightened Def Con from 0.0090042 to 0.0090042
Heightened Def Con from 0.0090042 to 0.0090042
Heightened Def Con from 0.00900421 to 0.00900421
Heightened Def Con from 0.00900421 to 0.00900421
Heightened Def Con from 0.00900422 to 0.00900422
Heightened Def Con from 0.00900422 to 0.00900422
Heightened Def Con from 0.00900423 to 0.00900423
Heightened Def Con from 0.00900425 to 0.00900425
Heightened Def Con from 0.00900425 to 0.00900425
Heightened Def Con from 0.00900425 to 0.00900425
Heightened Def Con from 0.00900425 to 0.00900425
Heightened Def Con from 0.00900425 to 0.00900425
Heightened Def Con from 0.00900425 to 0.00900425
Heightened Def Con from 0.00900425 to 0.00900425
Heightened Def Con from 0.00900425 to 0.00900425
Heightened Def Con from 0.00900425 to 0.00900425
Heightened Def Con from 0.00900426 to 0.00900426
Heightened Def Con from 0.00900426 to 0.00900426
Heightened Def Con from 0.00900426 to 0.00900426
Heightened Def Con from 0.00900426 to 0.00900426
Heightened Def Con from 0.00900426 to 0.00900427
Heightened Def Con from 0.00900428 to 0.00900428
Heightened Def Con from 0.00900428 to 0.00900428
Heightened Def Con from 0.00900428 to 0.00900428
Heightened Def Con from 0.00900428 to 0.00900428
Heightened Def Con from 0.00900429 to 0.00900429
Heightened Def Con from 0.00900429 to 0.00900429
Heightened Def Con from 0.0090043 to 0.0090043
Heightened Def Con from 0.00900565 to 0.00900565
Heightened Def Con from 0.00900565 to 0.00900565
Heightened Def Con from 0.00900565 to 0.00900565
Heightened Def Con from 0.00900565 to 0.00900565
Heightened Def Con from 0.00900565 to 0.00900565
Heightened Def Con from 0.00900565 to 0.00900565
Heightened Def Con from 0.00900565 to 0.00900565
Heightened Def Con from 0.00900565 to 0.00900565
Heightened Def Con from 0.00900566 to 0.00900566
Heightened Def Con from 0.00900567 to 0.00900567
Heightened Def Con from 0.00900567 to 0.00900567
Heightened Def Con from 0.00900567 to 0.00900567
Heightened Def Con from 0.00900568 to 0.00900568
Heightened Def Con from 0.00900568 to 0.00900568
Heightened Def Con from 0.00900568 to 0.00900568
Heightened Def Con from 0.00900568 to 0.00900568
Heightened Def Con from 0.00900569 to 0.00900569
Heightened Def Con from 0.00900569 to 0.00900569
Heightened Def Con from 0.00900569 to 0.00900569
Heightened Def Con from 0.00900571 to 0.00900571
Heightened Def Con from 0.00900578 to 0.00900578
Heightened Def Con from 0.00900578 to 0.00900578
Heightened Def Con from 0.00900578 to 0.00900578
Heightened Def Con from 0.00900578 to 0.00900578
Heightened Def Con from 0.00900578 to 0.00900578
Heightened Def Con from 0.00900582 to 0.00900582
Heightened Def Con from 0.00900582 to 0.00900582
Heightened Def Con from 0.00900582 to 0.00900582
Heightened Def Con from 0.00900582 to 0.00900582
Heightened Def Con from 0.00900582 to 0.00900582
Heightened Def Con from 0.00900582 to 0.00900582
Heightened Def Con from 0.00900582 to 0.00900582
Heightened Def Con from 0.00900582 to 0.00900582
Heightened Def Con from 0.00900582 to 0.00900582
Heightened Def Con from 0.00900582 to 0.00900583
Heightened Def Con from 0.00900583 to 0.00900583
Heightened Def Con from 0.00900583 to 0.00900583
Heightened Def Con from 0.00900583 to 0.00900583
Heightened Def Con from 0.00900583 to 0.00900583
Heightened Def Con from 0.00900583 to 0.00900583
Heightened Def Con from 0.00900583 to 0.00900583
Heightened Def Con from 0.00900583 to 0.00900583
Heightened Def Con from 0.00900583 to 0.00900583
Heightened Def Con from 0.00900583 to 0.00900583
Heightened Def Con from 0.00900583 to 0.00900583
Heightened Def Con from 0.00900583 +to 0.00900583
Heightened Def Con from 0.00900583 to 0.00900583
Heightened Def Con from 0.00900583 +to 0.00900583
Heightened Def Con from 0.00900583 to 0.00900583
Heightened Def Con from 0.00900583 to 0.00900583
Heightened Def Con from 0.00900583 to 0.00900583
Heightened Def Con from 0.00900583 to 0.00900583
Heightened Def Con from 0.00900583 to 0.00900584
Heightened Def Con from 0.00900584 to 0.00900584
Heightened Def Con from 0.00900584 to 0.00900584
Heightened Def Con from 0.00900586 to 0.00900586
Heightened Def Con from 0.00900594 to 0.00900594
Heightened Def Con from 0.00900594 to 0.00900594
Heightened Def Con from 0.00900595 to 0.00900595
Heightened Def Con from 0.00900595 to 0.00900595
Heightened Def Con from 0.00900595 to 0.00900595
Heightened Def Con from 0.00900596 to 0.00900596
Heightened Def Con from 0.00900596 to 0.00900596
Heightened Def Con from 0.00900596 to 0.00900596
Heightened Def Con from 0.00900597 to 0.00900597
Heightened Def Con from 0.00900597 to 0.00900597
Heightened Def Con from 0.00900597 to 0.00900597
Heightened Def Con from 0.00900597 to 0.00900598
Heightened Def Con from 0.00900598 to 0.00900598
Heightened Def Con from 0.00900599 to 0.00900599
Heightened Def Con from 0.00900599 to 0.009006
Heightened Def Con from 0.009006 to 0.009006
Heightened Def Con from 0.009006 to 0.009006
Heightened Def Con from 0.009006 to 0.009006
Heightened Def Con from 0.009006 to 0.009006
Heightened Def Con from 0.009006 to 0.009006
Heightened Def Con from 0.00900601 to 0.00900601
Heightened Def Con from 0.00900601 to 0.00900601
Heightened Def Con from 0.00900603 to 0.00900603
Heightened Def Con from 0.00900615 to 0.00900616
Heightened Def Con from 0.00900616 to 0.00900616
Heightened Def Con from 0.00900616 to 0.00900616
Heightened Def Con from 0.00900616 to 0.00900616
Heightened Def Con from 0.00900617 to 0.00900618
Heightened Def Con from 0.00900618 to 0.00900618
Heightened Def Con from 0.00900619 to 0.00900619
Heightened Def Con from 0.00900619 to 0.0090062
Heightened Def Con from 0.0090062 to 0.0090062
Heightened Def Con from 0.0090062 to 0.0090062
Heightened Def Con from 0.0090062 to 0.0090062
Heightened Def Con from 0.00900621 to 0.00900621
Heightened Def Con from 0.00900621 to 0.00900622
Heightened Def Con from 0.00900622 to 0.00900622
Heightened Def Con from 0.00900622 to 0.00900622
Heightened Def Con from 0.00900623 to 0.00900623
Heightened Def Con from 0.00900623 to 0.00900623
Heightened Def Con from 0.00900623 to 0.00900623
Heightened Def Con from 0.00900623 to 0.00900623
Heightened Def Con from 0.00900624 to 0.00900624
Heightened Def Con from 0.00900624 to 0.00900624
Heightened Def Con from 0.00900626 to 0.00900626
Heightened Def Con from 0.00900626 to 0.00900627
Heightened Def Con from 0.00900634 to 0.00900634
Heightened Def Con from 0.00900634 to 0.00900634
Heightened Def Con from 0.00900634 to 0.00900634
Heightened Def Con from 0.00900634 to 0.00900634
Heightened Def Con from 0.00900634 to 0.00900634
Heightened Def Con from 0.00900634 to 0.00900635
Heightened Def Con from 0.00900635 to 0.00900635
Heightened Def Con from 0.00900635 to 0.00900635
Heightened Def Con from 0.00900635 to 0.00900635
Heightened Def Con from 0.00900635 to 0.00900635
Heightened Def Con from 0.00900635 to 0.00900636
Heightened Def Con from 0.00900636 to 0.00900636
Heightened Def Con from 0.00900636 to 0.00900636
Heightened Def Con from 0.00900636 to 0.00900636
Heightened Def Con from 0.00900636 to 0.00900636
Heightened Def Con from 0.00900637 to 0.00900637
Heightened Def Con from 0.00900637 to 0.00900638
Heightened Def Con from 0.00900638 to 0.00900638
Heightened Def Con from 0.00900638 to 0.00900638
Heightened Def Con from 0.00900638 to 0.00900638
Heightened Def Con from 0.00900638 to 0.00900638
Heightened Def Con from 0.00900638 to 0.00900638
Heightened Def Con from 0.00900639 to 0.00900639
Heightened Def Con from 0.00900639 to 0.00900639
Heightened Def Con from 0.00900639 to 0.00900639
Heightened Def Con from 0.00900639 to 0.0090064
Heightened Def Con from 0.0090064 to 0.0090064
Heightened Def Con from 0.00900671 to 0.00900671
Heightened Def Con from 0.00900672 to 0.00900672
Heightened Def Con from 0.00900672 to 0.00900672
Heightened Def Con from 0.00900672 to 0.00900672
Heightened Def Con from 0.00900672 to 0.00900672
Heightened Def Con from 0.00900673 to 0.00900673
Heightened Def Con from 0.00900673 to 0.00900674
Heightened Def Con from 0.00900674 to 0.00900674
Heightened Def Con from 0.00900674 to 0.00900674
Heightened Def Con from 0.00900674 to 0.00900674
Heightened Def Con from 0.00900674 to 0.00900675
Heightened Def Con from 0.00900675 to 0.00900675
Heightened Def Con from 0.00900675 to 0.00900675
Heightened Def Con from 0.00900675 to 0.00900675
Heightened Def Con from 0.00900675 to 0.00900675
Heightened Def Con from 0.00900676 to 0.00900676
Heightened Def Con from 0.00900676 to 0.00900676
Heightened Def Con from 0.00900676 to 0.00900676
Heightened Def Con from 0.00900676 to 0.00900676
Heightened Def Con from 0.00900676 to 0.00900676
Heightened Def Con from 0.00900676 to 0.00900676
Heightened Def Con from 0.00900676 to 0.00900676
Heightened Def Con from 0.00900676 to 0.00900676
Heightened Def Con from 0.00900676 to 0.00900677
Heightened Def Con from 0.00900677 to 0.00900677
Heightened Def Con from 0.00900677 to 0.00900677
Heightened Def Con from 0.00900677 to 0.00900677
Heightened Def Con from 0.00900677 to 0.00900677
Heightened Def Con from 0.00900677 to 0.00900677
Heightened Def Con from 0.00900677 to 0.00900677
Heightened Def Con from 0.00900677 to 0.00900677
Heightened Def Con from 0.00900677 to 0.00900677
Heightened Def Con from 0.00900677 to 0.00900677
Heightened Def Con from 0.00900677 to 0.00900677
Heightened Def Con from 0.00900678 to 0.00900678
Heightened Def Con from 0.00900678 to 0.00900678
Heightened Def Con from 0.00900678 to 0.00900679
Heightened Def Con from 0.00900679 to 0.00900679
Heightened Def Con from 0.00900679 to 0.00900679
Heightened Def Con from 0.0090068 to 0.0090068
Heightened Def Con from 0.0090068 to 0.00900681
Heightened Def Con from 0.00900681 to 0.00900681
Heightened Def Con from 0.00900681 to 0.00900681
Heightened Def Con from 0.00900681 to 0.00900682
Heightened Def Con from 0.00900682 to 0.00900682
Heightened Def Con from 0.00900682 to 0.00900682
Heightened Def Con from 0.00900688 to 0.00900689
Heightened Def Con from 0.00900695 to 0.00900695
Heightened Def Con from 0.00900697 to 0.00900697
Heightened Def Con from 0.00900697 to 0.00900697
Heightened Def Con from 0.00900697 to 0.00900697
Heightened Def Con from 0.00900697 to 0.00900697
Heightened Def Con from 0.009007 to 0.009007
Heightened Def Con from 0.009007 to 0.00900701
Heightened Def Con from 0.00900701 to 0.00900701
Heightened Def Con from 0.00900701 to 0.00900701
Heightened Def Con from 0.00900701 to 0.00900701
Heightened Def Con from 0.00900701 to 0.00900701
Heightened Def Con from 0.00900702 to 0.00900702
Heightened Def Con from 0.0173449 to 0.0173449
Heightened Def Con from 0.0173449 to 0.0173449
Heightened Def Con from 0.0173449 to 0.0173449
Heightened Def Con from 0.0173449 +to 0.0173449
Heightened Def Con from 0.0173449 to 0.0173449
Heightened Def Con from 0.0173449 to 0.0173449
Heightened Def Con from 0.0173449 to 0.0173449
Heightened Def Con from 0.0173449 to 0.0173449
Heightened Def Con from 0.0173449 to 0.0173449
Heightened Def Con from 0.0173449 to 0.0173449
Heightened Def Con from 0.0173449 +to 0.0173449
Heightened Def Con from 0.0173449 to 0.0173449
Heightened Def Con from 0.0173449 to 0.0173449
Heightened Def Con from 0.0173449 to 0.0173449
Heightened Def Con from 0.0173449 to 0.0173449
Heightened Def Con from 0.0173449 to 0.0173449
Heightened Def Con from 0.0173449 +to 0.0173449
Heightened Def Con from 0.0173449 to 0.0173449
Heightened Def Con from 0.0173449 to 0.0173449
Heightened Def Con from 0.0173449 to 0.0173449
Heightened Def Con from 0.0173449 to 0.0173449
Heightened Def Con from 0.0173449 to 0.0173449
Heightened Def Con from 0.0173449 to 0.0173449
Heightened Def Con from 0.0173449 to 0.0173449
Heightened Def Con from 0.0173472 to 0.0173472
Heightened Def Con from 0.0235868 to 0.0235868
Heightened Def Con from 0.0235868 to 0.0235868
Heightened Def Con from 0.0235868 to 0.0235868
Heightened Def Con from 0.023587 to 0.023587
Heightened Def Con from 0.0235888 to 0.0235888
Heightened Def Con from 0.0235888 to 0.0235888
Heightened Def Con from 0.0235888 to 0.0235888
Heightened Def Con from 0.0235888 to 0.0235888
Heightened Def Con from 0.0235888 to 0.0235888
Heightened Def Con from 0.0235888 to 0.0235888
Heightened Def Con from 0.0235888 to 0.0235888
Heightened Def Con from 0.0235888 to 0.0235888
Heightened Def Con from 0.0235888 to 0.0235888
Heightened Def Con from 0.0235888 to 0.0235888
Heightened Def Con from 0.0235888 to 0.0235888
Heightened Def Con from 0.0235888 to 0.0235888
Heightened Def Con from 0.0235888 to 0.0235888
Heightened Def Con from 0.0235888 to 0.0235888
Heightened Def Con from 0.0235888 to 0.0235888
Heightened Def Con from 0.0235888 to 0.0235888
Heightened Def Con from 0.0235888 to 0.0235888
Heightened Def Con from 0.0235888 +to 0.0235888
Heightened Def Con from 0.0235888 to 0.0235888
Heightened Def Con from 0.0235888 to 0.0235888
Heightened Def Con from 0.0235888 to 0.0235888
Heightened Def Con from 0.0235888 to 0.0235888
Heightened Def Con from 0.0235888 to 0.0235888
Heightened Def Con from 0.0235888 to 0.0235888
Heightened Def Con from 0.0235888 to 0.0235889
Heightened Def Con from 0.0235889 to 0.0235889
Heightened Def Con from 0.0235889 to 0.0235889
Heightened Def Con from 0.0235889 to 0.0235889
Heightened Def Con from 0.0235889 to 0.0235889
Heightened Def Con from 0.0235889 to 0.0235889
Heightened Def Con from 0.0235889 to 0.0235889
Heightened Def Con from 0.0235889 to 0.0235889
Heightened Def Con from 0.0235889 to 0.0235889
Heightened Def Con from 0.0235889 to 0.0235889
Heightened Def Con from 0.0235889 to 0.0235889
Heightened Def Con from 0.0235889 to 0.0235889
Heightened Def Con from 0.0235889 to 0.0235889
Heightened Def Con from 0.0235889 to 0.0235889
Heightened Def Con from 0.0235889 to 0.0235889
Heightened Def Con from 0.0235889 to 0.0235889
Heightened Def Con from 0.0235889 to 0.0235889
Heightened Def Con from 0.0235889 to 0.0235889
Heightened Def Con from 0.0235889 to 0.0235889
Heightened Def Con from 0.0235889 to 0.0235889
Heightened Def Con from 0.023589 to 0.023589
Heightened Def Con from 0.023589 to 0.023589
Heightened Def Con from 0.023589 to 0.023589
Heightened Def Con from 0.023589 to 0.023589
Heightened Def Con from 0.023589 to 0.023589
Heightened Def Con from 0.023589 to 0.023589
Heightened Def Con from 0.023589 to 0.023589
Heightened Def Con from 0.023589 to 0.023589
Heightened Def Con from 0.023589 to 0.023589
Heightened Def Con from 0.023589 to 0.023589
Heightened Def Con from 0.023589 to 0.023589
Heightened Def Con from 0.023589 to 0.023589
Heightened Def Con from 0.023589 to 0.023589
Heightened Def Con from 0.023589 to 0.023589
Heightened Def Con from 0.023589 to 0.023589
Heightened Def Con from 0.023589 to 0.023589
Heightened Def Con from 0.023589 to 0.023589
Heightened Def Con from 0.023589 to 0.023589
Heightened Def Con from 0.023589 to 0.023589
Heightened Def Con from 0.023589 to 0.023589
Heightened Def Con from 0.023589 to 0.023589
Heightened Def Con from 0.023589 to 0.023589
Heightened Def Con from 0.023589 to 0.023589
Heightened Def Con from 0.023589 to 0.023589
Heightened Def Con from 0.023589 to 0.023589
Heightened Def Con from 0.0235891 to 0.0235891
Heightened Def Con from 0.0235891 to 0.0235891
Heightened Def Con from 0.0235891 to 0.0235891
Heightened Def Con from 0.0235891 to 0.0235891
Heightened Def Con from 0.0235891 to 0.0235891
Heightened Def Con from 0.0235891 to 0.0235891
Heightened Def Con from 0.0235891 to 0.0235891
Heightened Def Con from 0.0235891 to 0.0235891
Heightened Def Con from 0.0235891 to 0.0235891
Heightened Def Con from 0.0235891 to 0.0235891
Heightened Def Con from 0.0235891 to 0.0235891
Heightened Def Con from 0.0235891 to 0.0235891
Heightened Def Con from 0.0235891 to 0.0235891
Heightened Def Con from 0.0235891 to 0.0235891
Heightened Def Con from 0.0235891 to 0.0235891
Heightened Def Con from 0.0235891 to 0.0235891
Heightened Def Con from 0.0235891 to 0.0235891
Heightened Def Con from 0.0235891 to 0.0235891
Heightened Def Con from 0.0235891 to 0.0235891
Heightened Def Con from 0.0235891 to 0.0235891
Heightened Def Con from 0.0235891 to 0.0235891
Heightened Def Con from 0.0235891 to 0.0235892
Heightened Def Con from 0.0235892 to 0.0235892
Heightened Def Con from 0.0235892 to 0.0235892
Heightened Def Con from 0.0235892 to 0.0235892
Heightened Def Con from 0.0235892 to 0.0235892
Heightened Def Con from 0.0235892 to 0.0235892
Heightened Def Con from 0.0235892 to 0.0235892
Heightened Def Con from 0.0235892 to 0.0235892
Heightened Def Con from 0.0235892 to 0.0235892
Heightened Def Con from 0.0235892 to 0.0235892
Heightened Def Con from 0.0235892 to 0.0235892
Heightened Def Con from 0.0235892 to 0.0235892
Heightened Def Con from 0.0235892 to 0.0235892
Heightened Def Con from 0.0235892 to 0.0235892
Heightened Def Con from 0.0235892 to 0.0235892
Heightened Def Con from 0.0235892 to 0.0235892
Heightened Def Con from 0.0235892 to 0.0235892
Heightened Def Con from 0.0235892 to 0.0235892
Heightened Def Con from 0.0235892 to 0.0235892
Heightened Def Con from 0.0235892 to 0.0235892
Heightened Def Con from 0.0235892 to 0.0235892
Heightened Def Con from 0.0235892 to 0.0235892
Heightened Def Con from 0.0235892 to 0.0235892
Heightened Def Con from 0.0235892 to 0.0235892
Heightened Def Con from 0.0235892 to 0.0235892
Heightened Def Con from 0.0235892 to 0.0235892
Heightened Def Con from 0.0235892 to 0.0235892
Heightened Def Con from 0.0235892 to 0.0235892
Heightened Def Con from 0.0235892 to 0.0235892
Heightened Def Con from 0.0235892 to 0.0235892
Heightened Def Con from 0.0235892 to 0.0235892
Heightened Def Con from 0.0235892 to 0.0235892
Heightened Def Con from 0.0235892 to 0.0235892
Heightened Def Con from 0.0235892 to 0.0235892
Heightened Def Con from 0.0235892 to 0.0235892
Heightened Def Con from 0.0235892 to 0.0235892
Heightened Def Con from 0.0235892 to 0.0235892
Heightened Def Con from 0.0235892 to 0.0235892
Heightened Def Con from 0.0235892 to 0.0235892
Heightened Def Con from 0.0235892 to 0.0235892
Heightened Def Con from 0.0235893 to 0.0235893
Heightened Def Con from 0.0235893 to 0.0235893
Heightened Def Con from 0.0235893 to 0.0235893
Heightened Def Con from 0.0235893 to 0.0235893
Heightened Def Con from 0.0235893 to 0.0235893
Heightened Def Con from 0.0235893 to 0.0235893
Heightened Def Con from 0.0235893 to 0.0235893
Heightened Def Con from 0.0235893 to 0.0235893
Heightened Def Con from 0.0235893 to 0.0235893
Heightened Def Con from 0.0235893 to 0.0235893
Heightened Def Con from 0.0235893 to 0.0235893
Heightened Def Con from 0.0235893 +to 0.0235893
Heightened Def Con from 0.0235893 to 0.0235893
Heightened Def Con from 0.0235893 to 0.0235893
Heightened Def Con from 0.0235893 to 0.0235893
Heightened Def Con from 0.0235893 to 0.0235893
Heightened Def Con from 0.0235893 to 0.0235893
Heightened Def Con from 0.0235893 to 0.0235893
Heightened Def Con from 0.0235893 to 0.0235893
Heightened Def Con from 0.0235893 to 0.0235893
Heightened Def Con from 0.0235893 to 0.0235893
Heightened Def Con from 0.0235893 to 0.0235893
Heightened Def Con from 0.0235893 to 0.0235893
Heightened Def Con from 0.0235893 to 0.0235893
Heightened Def Con from 0.0235893 to 0.0235893
Heightened Def Con from 0.0235893 to 0.0235893
Heightened Def Con from 0.0235893 to 0.0235893
Heightened Def Con from 0.0235893 to 0.0235893
Heightened Def Con from 0.0235893 to 0.0235893
Heightened Def Con from 0.0235893 to 0.0235893
Heightened Def Con from 0.0235893 to 0.0235893
Heightened Def Con from 0.0235893 to 0.0235893
Heightened Def Con from 0.0235893 to 0.0235893
Heightened Def Con from 0.0235893 to 0.0235893
Heightened Def Con from 0.0235893 to 0.0235893
Heightened Def Con from 0.0235893 to 0.0235893
Heightened Def Con from 0.0235893 to 0.0235893
Heightened Def Con from 0.0235893 to 0.0235893
Heightened Def Con from 0.0235893 to 0.0235893
Heightened Def Con from 0.0235893 to 0.0235893
Heightened Def Con from 0.0235893 to 0.0235893
Heightened Def Con from 0.0235893 to 0.0235893
Heightened Def Con from 0.0235893 to 0.0235893
Heightened Def Con from 0.0235893 to 0.0235893
Heightened Def Con from 0.0235893 to 0.0235893
Heightened Def Con from 0.0235893 to 0.0235893
Heightened Def Con from 0.0235893 to 0.0235893
Heightened Def Con from 0.0235893 to 0.0235893
Heightened Def Con from 0.0235893 to 0.0235893
Heightened Def Con from 0.0235893 +to 0.0235893
Heightened Def Con from 0.0235894 to 0.0235894
Heightened Def Con from 0.0235894 to 0.0235894
Heightened Def Con from 0.0235894 to 0.0235894
Heightened Def Con from 0.0235894 to 0.0235894
Heightened Def Con from 0.0235894 to 0.0235894
Heightened Def Con from 0.0235894 to 0.0235894
Heightened Def Con from 0.0235894 to 0.0235894
Heightened Def Con from 0.0235894 to 0.0235894
Heightened Def Con from 0.0235894 to 0.0235894
Heightened Def Con from 0.0235894 to 0.0235894
Heightened Def Con from 0.0235894 to 0.0235894
Heightened Def Con from 0.0235894 to 0.0235894
Heightened Def Con from 0.0235894 to 0.0235894
Heightened Def Con from 0.0235894 to 0.0235894
Heightened Def Con from 0.0235894 to 0.0235894
Heightened Def Con from 0.0235894 to 0.0235894
Heightened Def Con from 0.0235894 to 0.0235894
Heightened Def Con from 0.0235894 to 0.0235894
Heightened Def Con from 0.0235894 to 0.0235894
Heightened Def Con from 0.0235896 to 0.0235896
Heightened Def Con from 0.0235896 to 0.0235896
Heightened Def Con from 0.0235896 to 0.0235896
Heightened Def Con from 0.0235896 to 0.0235896
Heightened Def Con from 0.0235896 to 0.0235896
Heightened Def Con from 0.0235896 to 0.0235896
Heightened Def Con from 0.0235896 to 0.0235897
Heightened Def Con from 0.0235897 to 0.0235897
Heightened Def Con from 0.0235897 to 0.0235897
Heightened Def Con from 0.0235897 to 0.0235897
Heightened Def Con from 0.0235897 to 0.0235897
Heightened Def Con from 0.0235897 to 0.0235897
Heightened Def Con from 0.0235897 to 0.0235897
Heightened Def Con from 0.0235897 +to 0.0235897
Heightened Def Con from 0.0235897 to 0.0235897
Heightened Def Con from 0.0235897 to 0.0235897
Heightened Def Con from 0.0235897 to 0.0235897
Heightened Def Con from 0.0235897 to 0.0235897
Heightened Def Con from 0.0235897 to 0.0235897
Heightened Def Con from 0.0235897 to 0.0235897
Heightened Def Con from 0.0235897 to 0.0235897
Heightened Def Con from 0.0235897 to 0.0235897
Heightened Def Con from 0.0235897 to 0.0235897
Heightened Def Con from 0.0235897 to 0.0235897
Heightened Def Con from 0.0235897 to 0.0235897
Heightened Def Con from 0.0235897 to 0.0235897
Heightened Def Con from 0.0235897 to 0.0235897
Heightened Def Con from 0.0235897 to 0.0235897
Heightened Def Con from 0.0235897 to 0.0235897
Heightened Def Con from 0.0235897 to 0.0235897
Heightened Def Con from 0.0235897 to 0.0235897
Heightened Def Con from 0.0235897 to 0.0235897
Heightened Def Con from 0.0235897 to 0.0235897
Heightened Def Con from 0.0235897 to 0.0235897
Heightened Def Con from 0.0235897 to 0.0235897
Heightened Def Con from 0.0235897 to 0.0235897
Heightened Def Con from 0.0235897 to 0.0235897
Heightened Def Con from 0.0235897 to 0.0235897
Heightened Def Con from 0.0235897 to 0.0235897
Heightened Def Con from 0.0235897 to 0.0235897
Heightened Def Con from 0.0235897 to 0.0235897
Heightened Def Con from 0.0235897 to 0.0235897
Heightened Def Con from 0.0235897 to 0.0235897
Heightened Def Con from 0.0235897 to 0.0235897
Heightened Def Con from 0.0235897 to 0.0235897
Heightened Def Con from 0.0235897 to 0.0235897
Heightened Def Con from 0.0235898 to 0.0235898
Heightened Def Con from 0.0235898 to 0.0235898
Heightened Def Con from 0.0235898 to 0.0235898
Heightened Def Con from 0.0235898 to 0.0235898
Heightened Def Con from 0.0235898 to 0.0235898
Heightened Def Con from 0.0235898 to 0.0235898
Heightened Def Con from 0.0235898 to 0.0235898
Heightened Def Con from 0.0235898 to 0.0235898
Heightened Def Con from 0.0235898 to 0.0235898
Heightened Def Con from 0.0235898 to 0.0235898
Heightened Def Con from 0.0235898 to 0.0235898
Heightened Def Con from 0.0235898 to 0.0235898
Heightened Def Con from 0.0235898 to 0.0235898
Heightened Def Con from 0.0235898 to 0.0235898
Heightened Def Con from 0.0235898 to 0.0235898
Heightened Def Con from 0.0235898 to 0.0235898
Heightened Def Con from 0.0235898 to 0.0235898
Heightened Def Con from 0.0235898 to 0.0235898
Heightened Def Con from 0.0235898 to 0.0235898
Heightened Def Con from 0.0235898 to 0.0235898
Heightened Def Con from 0.0235898 to 0.0235898
Heightened Def Con from 0.0235898 to 0.0235898
Heightened Def Con from 0.0235898 to 0.0235898
Heightened Def Con from 0.0235898 to 0.0235898
Heightened Def Con from 0.0235898 to 0.0235898
Heightened Def Con from 0.0235898 to 0.0235898
Heightened Def Con from 0.0235898 to 0.0235898
Heightened Def Con from 0.0235898 to 0.0235898
Heightened Def Con from 0.0235898 to 0.0235898
Heightened Def Con from 0.0235898 to 0.0235898
Heightened Def Con from 0.0235898 to 0.0235898
Heightened Def Con from 0.0235898 to 0.0235898
Heightened Def Con from 0.0235898 to 0.0235898
Heightened Def Con from 0.0235898 to 0.0235898
Heightened Def Con from 0.0235898 to 0.0235898
Heightened Def Con from 0.0235898 to 0.0235898
Heightened Def Con from 0.0235898 to 0.0235898
Heightened Def Con from 0.0235898 to 0.0235898
Heightened Def Con from 0.0235898 to 0.0235898
Heightened Def Con from 0.0235898 to 0.0235898
Heightened Def Con from 0.0235898 to 0.0235898
Heightened Def Con from 0.0235898 to 0.0235898
Heightened Def Con from 0.0235898 to 0.0235898
Heightened Def Con from 0.0235898 to 0.0235898
Heightened Def Con from 0.0235898 to 0.0235898
Heightened Def Con from 0.0235898 to 0.0235898
Heightened Def Con from 0.0235898 to 0.0235898
Heightened Def Con from 0.0235898 to 0.0235898
Heightened Def Con from 0.0235898 to 0.0235898
Heightened Def Con from 0.0235898 to 0.0235898
Heightened Def Con from 0.0235898 to 0.0235898
Heightened Def Con from 0.0235898 to 0.0235898
Heightened Def Con from 0.0235898 to 0.0235898
Heightened Def Con from 0.0235898 to 0.0235898
Heightened Def Con from 0.0235899 to 0.0235899
Heightened Def Con from 0.0235899 to 0.0235899
Heightened Def Con from 0.0235899 to 0.0235899
Heightened Def Con from 0.0235899 to 0.0235899
Heightened Def Con from 0.0235899 to 0.0235899
Heightened Def Con from 0.0235899 to 0.0235899
Heightened Def Con from 0.0235899 to 0.0235899
Heightened Def Con from 0.0235899 to 0.0235899
Heightened Def Con from 0.0235899 to 0.0235899
Heightened Def Con from 0.0235899 to 0.0235899
Heightened Def Con from 0.0235899 to 0.0235899
Heightened Def Con from 0.0235899 to 0.0235899
Heightened Def Con from 0.0235899 to 0.0235899
Heightened Def Con from 0.0235899 to 0.0235899
Heightened Def Con from 0.0235899 to 0.0235899
Heightened Def Con from 0.0235899 to 0.0235899
Heightened Def Con from 0.0235899 to 0.0235899
Heightened Def Con from 0.0235899 to 0.0235899
Heightened Def Con from 0.0235899 to 0.0235899
Heightened Def Con from 0.0235899 to 0.0235899
Heightened Def Con from 0.0235899 to 0.0235899
Heightened Def Con from 0.0235899 to 0.0235899
Heightened Def Con from 0.0235899 to 0.0235899
Heightened Def Con from 0.0235899 to 0.0235899
Heightened Def Con from 0.0235899 to 0.0235899
Heightened Def Con from 0.0235899 to 0.0235899
Heightened Def Con from 0.0235899 to 0.0235899
Heightened Def Con from 0.0235899 to 0.0235899
Heightened Def Con from 0.0235899 to 0.0235899
Heightened Def Con from 0.0235899 to 0.0235899
Heightened Def Con from 0.0235899 to 0.0235899
[...]
Heightened Def Con from 0.0423391 to 0.0423391
Heightened Def Con from 0.0423391 to 0.0423391
Heightened Def Con from 0.0423391 to 0.0423391
Heightened Def Con from 0.0423391 to 0.0423391
Heightened Def Con from 0.0423391 to 0.0423391
Heightened Def Con from 0.0423391 to 0.0423391
Heightened Def Con from 0.0423391 to 0.0423391
Heightened Def Con from 0.0423391 to 0.0423391
Heightened Def Con from 0.0423391 to 0.0423391
Heightened Def Con from 0.0423391 to 0.0423391
Heightened Def Con from 0.0423391 to 0.0423391
Heightened Def Con from 0.0423391 to 0.0423391
Heightened Def Con from 0.0423391 to 0.0423391
Heightened Def Con from 0.0423391 to 0.0423391
Heightened Def Con from 0.0423392 to 0.0423392
Heightened Def Con from 0.0423392 to 0.0423392
Heightened Def Con from 0.0423392 to 0.0423392
Heightened Def Con from 0.0423392 to 0.0423392
Heightened Def Con from 0.0423392 to 0.0423392
Heightened Def Con from 0.0423392 to 0.0423392
Heightened Def Con from 0.0423392 to 0.0423392
Heightened Def Con from 0.0423392 to 0.0423392
Heightened Def Con from 0.0423392 to 0.0423392
Heightened Def Con from 0.0423392 to 0.0423392
Heightened Def Con from 0.0423392 to 0.0423392
Heightened Def Con from 0.0423392 to 0.0423392
Heightened Def Con from 0.0423392 to 0.0423392
Heightened Def Con from 0.0423392 to 0.0423392
Heightened Def Con from 0.0423392 to 0.0423392
Heightened Def Con from 0.0423392 +to 0.0423392
Heightened Def Con from 0.0423392 to 0.0423392
Heightened Def Con from 0.0423392 to 0.0423392
Heightened Def Con from 0.0423392 to 0.0423392
Heightened Def Con from 0.0423392 to 0.0423392
Heightened Def Con from 0.0423392 to 0.0423392
Heightened Def Con from 0.0423392 to 0.0423392
Heightened Def Con from 0.0423392 to 0.0423392
Heightened Def Con from 0.0423392 to 0.0423392
Heightened Def Con from 0.0423392 to 0.0423392
Heightened Def Con from 0.0423392 to 0.0423392
Heightened Def Con from 0.0423392 +to 0.0423392
Heightened Def Con from 0.0423392 to 0.0423392
Heightened Def Con from 0.0423393 to 0.0423393
Heightened Def Con from 0.0423393 to 0.0423393
Heightened Def Con from 0.0423393 to 0.0423393
Heightened Def Con from 0.0423393 to 0.0423393
Heightened Def Con from 0.0423393 to 0.0423393
Heightened Def Con from 0.0423393 to 0.0423393
Heightened Def Con from 0.0423393 to 0.0423393
Heightened Def Con from 0.0423393 to 0.0423393
Heightened Def Con from 0.0423393 to 0.0423393
Heightened Def Con from 0.0423393 to 0.0423393
Heightened Def Con from 0.0423393 to 0.0423393
Heightened Def Con from 0.0423393 to 0.0423393
Heightened Def Con from 0.0423393 to 0.0423393
Heightened Def Con from 0.0423393 to 0.0423393
Heightened Def Con from 0.0423393 to 0.0423393
Heightened Def Con from 0.0423393 to 0.0423393
Heightened Def Con from 0.0423393 to 0.0423393
Heightened Def Con from 0.0423393 to 0.0423393
Heightened Def Con from 0.0423393 to 0.0423393
Heightened Def Con from 0.0423393 to 0.0423393
Heightened Def Con from 0.0423393 to 0.0423393
Heightened Def Con from 0.0423393 to 0.0423393
Heightened Def Con from 0.0423393 to 0.0423393
Heightened Def Con from 0.0423393 to 0.0423393
Heightened Def Con from 0.0423393 to 0.0423393
Heightened Def Con from 0.0423393 to 0.0423393
Heightened Def Con from 0.0423393 to 0.0423393
Heightened Def Con from 0.0423393 to 0.0423393
Heightened Def Con from 0.0423393 to 0.0423393
Heightened Def Con from 0.0423393 to 0.0423393
Heightened Def Con from 0.0423393 to 0.0423393
Heightened Def Con from 0.0423393 to 0.0423393
Heightened Def Con from 0.0423393 to 0.0423393
Heightened Def Con from 0.0423393 to 0.0423393
Heightened Def Con from 0.0423393 to 0.0423393
Heightened Def Con from 0.0423393 to 0.0423393
Heightened Def Con from 0.0423393 to 0.0423393
Heightened Def Con from 0.0423393 to 0.0423393
Heightened Def Con from 0.0423393 to 0.0423393
Heightened Def Con from 0.0423393 to 0.0423393
Heightened Def Con from 0.0423393 to 0.0423393
Heightened Def Con from 0.0423393 to 0.0423394
Heightened Def Con from 0.0423394 to 0.0423394
Heightened Def Con from 0.0423394 to 0.0423394
Heightened Def Con from 0.0423394 to 0.0423394
Heightened Def Con from 0.0423394 to 0.0423394
Heightened Def Con from 0.0423394 to 0.0423394
Heightened Def Con from 0.0423394 to 0.0423394
Heightened Def Con from 0.0423394 to 0.0423394
Heightened Def Con from 0.0423394 to 0.0423394
Heightened Def Con from 0.0423394 to 0.0423394
Heightened Def Con from 0.0423394 to 0.0423394
Heightened Def Con from 0.0423394 to 0.0423394
Heightened Def Con from 0.0423394 to 0.0423394
Heightened Def Con from 0.0423394 to 0.0423394
Heightened Def Con from 0.0423394 to 0.0423394
Heightened Def Con from 0.0423394 +to 0.0423394
Heightened Def Con from 0.0423394 +to 0.0423394
Heightened Def Con from 0.0423394 +to 0.0423394
Heightened Def Con from 0.0423394 +to 0.0423394
Heightened Def Con from 0.0423394 to 0.0423394
Heightened Def Con from 0.0423394 to 0.0423394
Heightened Def Con from 0.0423394 to 0.0423394
Heightened Def Con from 0.0423394 to 0.0423394
Heightened Def Con from 0.0423394 to 0.0423394
Heightened Def Con from 0.0423394 to 0.0423394
Heightened Def Con from 0.0423394 to 0.0423394
Heightened Def Con from 0.0423394 to 0.0423394
Heightened Def Con from 0.0423394 ++to 0.0423394
Heightened Def Con from 0.0423394 to 0.0423394
Heightened Def Con from 0.0423394 to 0.0423394
Heightened Def Con from 0.0423394 to 0.0423394
Heightened Def Con from 0.0423394 to 0.0423394
Heightened Def Con from 0.0423394 to 0.0423394
Heightened Def Con from 0.0423394 to 0.0423394
Heightened Def Con from 0.0423394 to 0.0423394
Heightened Def Con from 0.0423394 to 0.0423394
Heightened Def Con from 0.0423394 to 0.0423394
Heightened Def Con from 0.0423394 to 0.0423394
Heightened Def Con from 0.0423394 to 0.0423394
Heightened Def Con from 0.0423394 to 0.0423394
Heightened Def Con from 0.0423394 to 0.0423394
Heightened Def Con from 0.0423394 to 0.0423394
Heightened Def Con from 0.0423394 to 0.0423394
Heightened Def Con from 0.0423394 to 0.0423394
Heightened Def Con from 0.0423394 to 0.0423394
Heightened Def Con from 0.0423394 to 0.0423394
Heightened Def Con from 0.0423394 to 0.0423394
Heightened Def Con from 0.0423394 to 0.0423394
Heightened Def Con from 0.0423394 to 0.0423394
Heightened Def Con from 0.0423394 to 0.0423394
Heightened Def Con from 0.0423394 to 0.0423394
Heightened Def Con from 0.0423394 to 0.0423394
Heightened Def Con from 0.0423394 to 0.0423394
Heightened Def Con from 0.0423394 to 0.0423394
Heightened Def Con from 0.0423394 to 0.0423394
Heightened Def Con from 0.0423394 to 0.0423394
Heightened Def Con from 0.0423394 to 0.0423394
Heightened Def Con from 0.0423394 to 0.0423394
Heightened Def Con from 0.0423394 to 0.0423394
Heightened Def Con from 0.0423394 to 0.0423394
Heightened Def Con from 0.0423394 to 0.0423394
Heightened Def Con from 0.0423394 to 0.0423394
Heightened Def Con from 0.0423395 to 0.0423395
Heightened Def Con from 0.0423395 to 0.0423395
Heightened Def Con from 0.0423395 to 0.0423395
Heightened Def Con from 0.0423395 to 0.0423395
Heightened Def Con from 0.0423395 to 0.0423395
Heightened Def Con from 0.0423395 to 0.0423395
Heightened Def Con from 0.0423395 to 0.0423395
Heightened Def Con from 0.0423395 to 0.0423395
Heightened Def Con from 0.0423395 to 0.0423395
Heightened Def Con from 0.0423395 to 0.0423395
Heightened Def Con from 0.0423395 to 0.0423395
Heightened Def Con from 0.0423395 to 0.0423395
Heightened Def Con from 0.0423395 to 0.0423395
Heightened Def Con from 0.0423395 to 0.0423395
Heightened Def Con from 0.0423395 to 0.0423395
Heightened Def Con from 0.0423395 to 0.0423395
Heightened Def Con from 0.0423395 to 0.0423395
Heightened Def Con from 0.0423395 to 0.0423395
Heightened Def Con from 0.0423395 to 0.0423395
Heightened Def Con from 0.0423395 to 0.0423395
Heightened Def Con from 0.0423396 to 0.0423396
Heightened Def Con from 0.0423396 to 0.0423396
Heightened Def Con from 0.0423396 to 0.0423396
Heightened Def Con from 0.0423396 to 0.0423396
Heightened Def Con from 0.0423396 to 0.0423396
Heightened Def Con from 0.0423396 to 0.0423396
Heightened Def Con from 0.0423396 to 0.0423396
Heightened Def Con from 0.0423396 to 0.0423396
Heightened Def Con from 0.0423396 to 0.0423396
Heightened Def Con from 0.0423396 to 0.0423396
Heightened Def Con from 0.0423396 to 0.0423396
Heightened Def Con from 0.0423396 to 0.0423396
Heightened Def Con from 0.0423396 to 0.0423396
Heightened Def Con from 0.0423396 to 0.0423396
Heightened Def Con from 0.0423396 to 0.0423396
Heightened Def Con from 0.0423396 to 0.0423396
Heightened Def Con from 0.0423396 +to 0.0423396
Heightened Def Con from 0.0423396 to 0.0423396
Heightened Def Con from 0.0423396 to 0.0423396
Heightened Def Con from 0.0423396 to 0.0423396
Heightened Def Con from 0.0423396 to 0.0423396
Heightened Def Con from 0.0423396 to 0.0423396
Heightened Def Con from 0.0423396 to 0.0423396
Heightened Def Con from 0.0423396 to 0.0423396
Heightened Def Con from 0.0423396 to 0.0423396
Heightened Def Con from 0.0423396 to 0.0423396
Heightened Def Con from 0.0423396 to 0.0423396
Heightened Def Con from 0.0423396 to 0.0423396
Heightened Def Con from 0.0423396 to 0.0423396
Heightened Def Con from 0.0423396 to 0.0423396
Heightened Def Con from 0.0423396 to 0.0423396
Heightened Def Con from 0.0423396 to 0.0423396
Heightened Def Con from 0.0423396 to 0.0423396
Heightened Def Con from 0.0423396 to 0.0423396
Heightened Def Con from 0.0423396 to 0.0423396
Heightened Def Con from 0.0423396 to 0.0423396
Heightened Def Con from 0.0423396 to 0.0423396
Heightened Def Con from 0.0423396 to 0.0423396
Heightened Def Con from 0.0423396 to 0.0423396
Heightened Def Con from 0.0423397 to 0.0423397
Heightened Def Con from 0.0423397 to 0.0423397
Heightened Def Con from 0.0423397 to 0.0423397
Heightened Def Con from 0.0423397 to 0.0423397
Heightened Def Con from 0.0423397 to 0.0423397
Heightened Def Con from 0.0423397 to 0.0423397
Heightened Def Con from 0.0423397 to 0.0423397
Heightened Def Con from 0.0423397 to 0.0423397
Heightened Def Con from 0.0423397 to 0.0423397
Heightened Def Con from 0.0423397 to 0.0423397
Heightened Def Con from 0.0423397 to 0.0423397
Heightened Def Con from 0.0423397 to 0.0423397
Heightened Def Con from 0.0423398 to 0.0423398
Heightened Def Con from 0.0423398 to 0.0423398
Heightened Def Con from 0.0423398 to 0.0423398
Heightened Def Con from 0.0423398 to 0.0423398
Heightened Def Con from 0.0423401 to 0.0423401
Heightened Def Con from 0.0423401 to 0.0423401
Heightened Def Con from 0.0423401 to 0.0423401
Heightened Def Con from 0.0423402 to 0.0423402
Heightened Def Con from 0.0423402 to 0.0423402
Heightened Def Con from 0.0423402 to 0.0423402
Heightened Def Con from 0.0423402 to 0.0423402
Heightened Def Con from 0.0423402 to 0.0423402
Heightened Def Con from 0.0423402 to 0.0423402
Heightened Def Con from 0.0423402 to 0.0423402
Heightened Def Con from 0.0423402 to 0.0423402
Heightened Def Con from 0.0423402 to 0.0423402
Heightened Def Con from 0.0423402 to 0.0423402
Heightened Def Con from 0.0423402 to 0.0423402
Heightened Def Con from 0.0423402 to 0.0423402
Heightened Def Con from 0.0423402 to 0.0423402
Heightened Def Con from 0.0423403 to 0.0423403
Heightened Def Con from 0.0423403 to 0.0423403
Heightened Def Con from 0.0423403 to 0.0423403
Heightened Def Con from 0.0423403 to 0.0423403
Heightened Def Con from 0.0423403 to 0.0423403
Heightened Def Con from 0.0423403 to 0.0423403
Heightened Def Con from 0.0423403 to 0.0423403
Heightened Def Con from 0.0423403 to 0.0423403
Heightened Def Con from 0.0423403 to 0.0423403
Heightened Def Con from 0.0423403 to 0.0423403
Heightened Def Con from 0.0423404 to 0.0423404
Heightened Def Con from 0.0423404 to 0.0423404
Heightened Def Con from 0.0423404 to 0.0423404
Heightened Def Con from 0.0423407 to 0.0423407
Heightened Def Con from 0.0423407 to 0.0423407
Heightened Def Con from 0.0423407 to 0.0423407
Heightened Def Con from 0.0423407 to 0.0423407
Heightened Def Con from 0.0423407 to 0.0423407
Heightened Def Con from 0.0423407 to 0.0423407
Heightened Def Con from 0.0423407 to 0.0423407
Heightened Def Con from 0.0423407 to 0.0423407
Heightened Def Con from 0.0423407 to 0.0423407
Heightened Def Con from 0.0423407 to 0.0423407
Heightened Def Con from 0.0423407 to 0.0423407
Heightened Def Con from 0.0423407 to 0.0423407
Heightened Def Con from 0.0423407 to 0.0423407
Heightened Def Con from 0.0423407 to 0.0423407
Heightened Def Con from 0.0423407 to 0.0423407
Heightened Def Con from 0.0423407 to 0.0423407
Heightened Def Con from 0.0423408 to 0.0423408
Heightened Def Con from 0.0423408 to 0.0423408
Heightened Def Con from 0.0423408 to 0.0423408
Heightened Def Con from 0.0423408 to 0.0423408
Heightened Def Con from 0.0423408 to 0.0423408
Heightened Def Con from 0.0423408 to 0.0423408
Heightened Def Con from 0.0423408 to 0.0423408
Heightened Def Con from 0.0423408 to 0.0423408
Heightened Def Con from 0.0423408 to 0.0423408
Heightened Def Con from 0.0423409 to 0.0423409
Heightened Def Con from 0.0423409 to 0.0423409
Heightened Def Con from 0.0423409 to 0.0423409
Heightened Def Con from 0.0423409 to 0.0423409
Heightened Def Con from 0.0423409 to 0.0423409
Heightened Def Con from 0.0423409 to 0.0423409
Heightened Def Con from 0.0423409 to 0.0423409
Heightened Def Con from 0.0423409 to 0.0423409
Heightened Def Con from 0.0423409 to 0.0423409
Heightened Def Con from 0.0423409 to 0.0423409
Heightened Def Con from 0.0423409 to 0.0423409
Heightened Def Con from 0.0423409 to 0.0423409
Heightened Def Con from 0.0423409 to 0.0423409
Heightened Def Con from 0.0423409 to 0.0423409
Heightened Def Con from 0.0423409 to 0.0423409
Heightened Def Con from 0.0423409 to 0.0423409
Heightened Def Con from 0.0423409 to 0.0423409
Heightened Def Con from 0.0423409 to 0.0423409
Heightened Def Con from 0.0423409 to 0.0423409
Heightened Def Con from 0.0423409 to 0.0423409
Heightened Def Con from 0.0423409 to 0.0423409
Heightened Def Con from 0.0423409 to 0.0423409
Heightened Def Con from 0.0423409 to 0.0423409
Heightened Def Con from 0.0423409 to 0.0423409
Heightened Def Con from 0.0423409 +to 0.0423409
Heightened Def Con from 0.0423409 to 0.0423409
Heightened Def Con from 0.0423409 to 0.0423409
Heightened Def Con from 0.0423409 to 0.0423409
Heightened Def Con from 0.0423409 to 0.0423409
Heightened Def Con from 0.0423409 to 0.0423409
Heightened Def Con from 0.0423409 to 0.0423409
Heightened Def Con from 0.0423409 to 0.0423409
Heightened Def Con from 0.0423409 to 0.0423409
Heightened Def Con from 0.0423409 to 0.0423409
Heightened Def Con from 0.0423409 to 0.0423409
Heightened Def Con from 0.0423409 to 0.0423409
Heightened Def Con from 0.0423409 to 0.0423409
Heightened Def Con from 0.0423409 to 0.0423409
Heightened Def Con from 0.0423409 to 0.0423409
Heightened Def Con from 0.0423409 to 0.0423409
Heightened Def Con from 0.0423409 to 0.0423409
Heightened Def Con from 0.0423409 to 0.0423409
Heightened Def Con from 0.0423409 to 0.042341
Heightened Def Con from 0.0423411 to 0.0423411
Heightened Def Con from 0.0423411 to 0.0423411
Heightened Def Con from 0.0423411 to 0.0423411
Heightened Def Con from 0.0423411 to 0.0423411
Heightened Def Con from 0.0423411 to 0.0423411
Heightened Def Con from 0.0423411 to 0.0423411
Heightened Def Con from 0.0423411 to 0.0423411
Heightened Def Con from 0.0423411 to 0.0423411
Heightened Def Con from 0.0423411 to 0.0423411
Heightened Def Con from 0.0423411 to 0.0423411
Heightened Def Con from 0.0423411 to 0.0423411
Heightened Def Con from 0.0423411 to 0.0423411
Heightened Def Con from 0.0423411 to 0.0423411
Heightened Def Con from 0.0423412 to 0.0423412
Heightened Def Con from 0.0423412 to 0.0423412
Heightened Def Con from 0.0423412 to 0.0423412
Heightened Def Con from 0.0423412 to 0.0423412
Heightened Def Con from 0.0423412 to 0.0423412
Heightened Def Con from 0.0423412 to 0.0423412
Heightened Def Con from 0.0423412 to 0.0423412
Heightened Def Con from 0.0423412 to 0.0423412
Heightened Def Con from 0.0423414 to 0.0423414
Heightened Def Con from 0.0423414 to 0.0423414
Heightened Def Con from 0.0423414 to 0.0423414
Heightened Def Con from 0.0423414 to 0.0423414
Heightened Def Con from 0.0423414 to 0.0423414
Heightened Def Con from 0.0423414 to 0.0423414
Heightened Def Con from 0.0423414 to 0.0423414
Heightened Def Con from 0.0423414 to 0.0423414
Heightened Def Con from 0.0423415 to 0.0423415
Heightened Def Con from 0.0423415 to 0.0423415
Heightened Def Con from 0.0423415 to 0.0423415
Heightened Def Con from 0.0423415 to 0.0423415
Heightened Def Con from 0.0423415 to 0.0423415
Heightened Def Con from 0.0423415 to 0.0423415
Heightened Def Con from 0.0423415 to 0.0423415
Heightened Def Con from 0.0423416 to 0.0423416
Heightened Def Con from 0.0423417 to 0.0423417
Heightened Def Con from 0.0423417 to 0.0423417
Heightened Def Con from 0.0423417 to 0.0423417
Heightened Def Con from 0.0423417 to 0.0423417
Heightened Def Con from 0.0423417 to 0.0423417
Heightened Def Con from 0.0423417 to 0.0423417
Heightened Def Con from 0.0423417 to 0.0423417
Heightened Def Con from 0.0423417 to 0.0423417
Heightened Def Con from 0.0423417 to 0.0423417
Heightened Def Con from 0.0423417 to 0.0423417
Heightened Def Con from 0.0423417 to 0.0423417
Heightened Def Con from 0.0423417 to 0.0423417
Heightened Def Con from 0.0423417 to 0.0423417
Heightened Def Con from 0.0423418 to 0.0423418
Heightened Def Con from 0.0423418 to 0.0423418
Heightened Def Con from 0.0423418 to 0.0423418
Heightened Def Con from 0.0423418 to 0.0423418
Heightened Def Con from 0.0423418 to 0.0423418
Heightened Def Con from 0.0423418 to 0.0423418
Heightened Def Con from 0.0423418 to 0.0423418
Heightened Def Con from 0.0423418 to 0.0423418
Heightened Def Con from 0.0423418 to 0.0423418
Heightened Def Con from 0.0423418 to 0.0423418
Heightened Def Con from 0.0423418 to 0.0423418
Heightened Def Con from 0.0423418 to 0.0423418
Heightened Def Con from 0.0423418 to 0.0423418
Heightened Def Con from 0.0423418 to 0.0423418
Heightened Def Con from 0.0423418 to 0.0423418
Heightened Def Con from 0.0423418 to 0.0423418
Heightened Def Con from 0.0423418 to 0.0423418
Heightened Def Con from 0.0423418 to 0.0423418
Heightened Def Con from 0.0423418 to 0.0423418
Heightened Def Con from 0.0423418 to 0.0423418
Heightened Def Con from 0.0423418 to 0.0423418
Heightened Def Con from 0.0423418 to 0.0423418
Heightened Def Con from 0.0423418 to 0.0423418
Heightened Def Con from 0.0423418 to 0.0423418
Heightened Def Con from 0.0423418 to 0.0423418
Heightened Def Con from 0.0423418 to 0.0423418
Heightened Def Con from 0.0423418 to 0.0423418
Heightened Def Con from 0.0423418 to 0.0423418
Heightened Def Con from 0.0423418 to 0.0423418
Heightened Def Con from 0.0423418 to 0.0423418
Heightened Def Con from 0.0423418 to 0.0423418
Heightened Def Con from 0.0423418 to 0.0423418
Heightened Def Con from 0.0423418 to 0.0423418
Heightened Def Con from 0.0423419 to 0.0423419
Heightened Def Con from 0.0423419 to 0.0423419
Heightened Def Con from 0.0423419 to 0.0423419
Heightened Def Con from 0.0423419 to 0.0423419
Heightened Def Con from 0.0423419 to 0.0423419
Heightened Def Con from 0.0423419 to 0.0423419
Heightened Def Con from 0.0423419 to 0.0423419
Heightened Def Con from 0.0423419 to 0.0423419
Heightened Def Con from 0.0423419 to 0.0423419
Heightened Def Con from 0.0423419 to 0.0423419
Heightened Def Con from 0.0423419 to 0.0423419
Heightened Def Con from 0.0423419 to 0.0423419
Heightened Def Con from 0.0423419 to 0.0423419
Heightened Def Con from 0.0423419 to 0.0423419
Heightened Def Con from 0.0423419 to 0.0423419
Heightened Def Con from 0.0423419 to 0.0423419
Heightened Def Con from 0.0485855 to 0.0485855
Heightened Def Con from 0.0485855 to 0.0485855

Date: Wed May 13 17:23:39 2020
Total elapsed time: 4.159 seconds.

tnom = 27
temp = 27
method = modified trap
totiter = 1199162
traniter = 1199148
tranpoints = 271397
accept = 209424
rejected = 65745
matrix size = 5
fillins = 5
solver = Normal
Matrix Compiler1: 398 bytes object code size  0.1/0.1/[0.0]
Matrix Compiler2: off  [0.1]/0.1/0.1

