
   --- Expanded Deck Component Count ---
C's 1
D's 4
R's 2
V's 1
tot: 8


    --- Expanded Netlist ---
* C:\Users\user\Desktop\python_spice\cfl_lamp\cfl_equiv.asc
r1 n001 0 1714.5433537006675
d1 n003 n001 d
d2 n004 n001 d
d3 0 n003 d
d4 0 n004 d
c1 n001 0 1.1310115149864331e-05
r2 n002 n003 29.779137810171147
v1 n002 n004 sine(0 170.83060321432882 60 0 0 -240.84000000000003)
.model d d
.tran 0 0.0512
.options maxstep=1.25-5
.end

Direct Newton iteration for .op point succeeded.

Date: Thu Nov 26 12:04:34 2020
Total elapsed time: 0.125 seconds.

tnom = 27
temp = 27
method = modified trap
totiter = 657
traniter = 643
tranpoints = 162
accept = 124
rejected = 38
matrix size = 5
fillins = 5
solver = Normal
Matrix Compiler1:      22 opcodes  0.2/[0.1]/0.1
Matrix Compiler2: 437 bytes object code size  0.1/0.1/[0.1]

Direct Newton iteration for .op point succeeded.

Date: Thu Nov 26 12:16:58 2020
Total elapsed time: 0.192 seconds.

tnom = 27
temp = 27
method = modified trap
totiter = 647
traniter = 633
tranpoints = 155
accept = 119
rejected = 36
matrix size = 5
fillins = 5
solver = Normal
Matrix Compiler1: 398 bytes object code size  0.1/0.1/[0.1]
Matrix Compiler2: 437 bytes object code size  0.1/0.1/[0.1]

