Circuit: * C:\Users\user\Desktop\python_spice\cfl_lamp\cfl_equiv.asc

