
   --- Expanded Deck Component Count ---
C's 1
D's 4
R's 2
V's 1
tot: 8


    --- Expanded Netlist ---
* C:\Users\user\Desktop\python_spice\cfl_lamp\cfl_equiv.asc
r1 n001 0 4463.471860837721
d1 n003 n001 d
d2 n004 n001 d
d3 0 n003 d
d4 0 n004 d
c1 n001 0 -6.74239673151751
r2 n002 n003 392.1566170748455
v1 n002 n004 sine(0 170.83060321432882 60 0 0 -240.84000000000003)
.model d d
.tran 0 0.0512
.options maxstep=1.25-5
.end

Direct Newton iteration for .op point succeeded.

Date: Thu Sep 24 09:32:54 2020
Total elapsed time: 0.211 seconds.

tnom = 27
temp = 27
method = modified trap
totiter = 545
traniter = 533
tranpoints = 154
accept = 113
rejected = 41
matrix size = 5
fillins = 3
solver = Normal
Matrix Compiler1: 342 bytes object code size  0.2/0.1/[0.1]
Matrix Compiler2: off  [0.1]/0.2/0.1

