Circuit: * C:\Users\user\Desktop\python_spice\cfl_lamp\cfl_equiv.asc

Direct Newton iteration for .op point succeeded.

Date: Wed Dec 02 21:52:41 2020
Total elapsed time: 0.201 seconds.

tnom = 27
temp = 27
method = modified trap
totiter = 661
traniter = 647
tranpoints = 161
accept = 124
rejected = 37
matrix size = 5
fillins = 5
solver = Normal
Matrix Compiler1: 398 bytes object code size  0.1/0.1/[0.1]
Matrix Compiler2: off  [0.1]/0.1/0.1

