Circuit: * C:\Users\user\Desktop\python_spice\cfl_lamp\cfl_equiv.asc

Direct Newton iteration for .op point succeeded.

Date: Thu Nov 05 09:54:49 2020
Total elapsed time: 0.219 seconds.

tnom = 27
temp = 27
method = modified trap
totiter = 564
traniter = 552
tranpoints = 154
accept = 113
rejected = 41
matrix size = 5
fillins = 5
solver = Normal
Matrix Compiler1: 398 bytes object code size  0.1/0.1/[0.0]
Matrix Compiler2: 437 bytes object code size  0.1/0.1/[0.1]

