
   --- Expanded Deck Component Count ---
C's 1
D's 4
R's 2
V's 1
tot: 8

<<<<<<< HEAD

    --- Expanded Netlist ---
* C:\Users\user\Desktop\python_spice\cfl_lamp\cfl_equiv.asc
r1 n001 0 693.3104325932708
d1 n003 n001 d
d2 n004 n001 d
d3 0 n003 d
d4 0 n004 d
c1 n001 0 -3.541502215609979
r2 n002 n003 2.007186999313344
v1 n002 n004 sine(0 170.83060321432882 60 0 0 -240.84000000000003)
.model d d
.tran 0 0.0512
.options maxstep=1.25-5
.end
=======
Date: Sat Sep 12 11:19:48 2020
Total elapsed time: 0.216 seconds.

tnom = 27
temp = 27
method = modified trap
totiter = 634
traniter = 627
tranpoints = 182
accept = 134
rejected = 48
matrix size = 5
fillins = 3
solver = Normal
Matrix Compiler1: 342 bytes object code size  0.1/0.1/[0.1]
Matrix Compiler2: 403 bytes object code size  0.1/0.1/[0.1]
>>>>>>> b8db2dc0c5948cd258a4e2c56321481112f01586

Direct Newton iteration for .op point succeeded.
Heightened Def Con from 5.81428e-005 to 5.81428e-005
Heightened Def Con from 5.81499e-005 to 5.81499e-005
Heightened Def Con from 5.81499e-005 to 5.81509e-005
Heightened Def Con from 5.81531e-005 to 5.81541e-005
Heightened Def Con from 5.81541e-005 to 5.81551e-005
Heightened Def Con from 5.84722e-005 to 5.84732e-005
Heightened Def Con from 6.06563e-005 to 6.06564e-005
Heightened Def Con from 6.06564e-005 to 6.06564e-005
Heightened Def Con from 6.06564e-005 to 6.06565e-005
Heightened Def Con from 6.06565e-005 to 6.06575e-005
Heightened Def Con from 6.06575e-005 to 6.06576e-005
Heightened Def Con from 6.06576e-005 to 6.06576e-005
Heightened Def Con from 6.06576e-005 to 6.06576e-005
Heightened Def Con from 6.06576e-005 to 6.06586e-005
Heightened Def Con from 6.06589e-005 to 6.06589e-005
Heightened Def Con from 6.06589e-005 to 6.06599e-005
Heightened Def Con from 6.06619e-005 to 6.06629e-005
Heightened Def Con from 6.06629e-005 to 6.06639e-005
Heightened Def Con from 6.06639e-005 to 6.06639e-005
Heightened Def Con from 6.06639e-005 to 6.0664e-005
Heightened Def Con from 6.0664e-005 to 6.0665e-005
Heightened Def Con from 6.06653e-005 to 6.06655e-005
Heightened Def Con from 6.06655e-005 to 6.06655e-005
Heightened Def Con from 6.06656e-005 to 6.06657e-005
Heightened Def Con from 6.06659e-005 to 6.0666e-005
Heightened Def Con from 6.0666e-005 to 6.0667e-005
Heightened Def Con from 6.0669e-005 to 6.06691e-005
Heightened Def Con from 6.06691e-005 to 6.06691e-005
Heightened Def Con from 6.06691e-005 to 6.06701e-005
Heightened Def Con from 6.06709e-005 to 6.0671e-005
Heightened Def Con from 6.06714e-005 to 6.06714e-005
Heightened Def Con from 6.06714e-005 to 6.06724e-005
Heightened Def Con from 6.06724e-005 to 6.06734e-005
Heightened Def Con from 6.06734e-005 to 6.06734e-005
Heightened Def Con from 6.06734e-005 +to 6.06735e-005
Heightened Def Con from 6.06735e-005 to 6.06735e-005
Heightened Def Con from 6.06735e-005 to 6.06735e-005
Heightened Def Con from 6.06735e-005 to 6.06735e-005
Heightened Def Con from 6.06735e-005 to 6.06745e-005
Heightened Def Con from 6.06745e-005 to 6.06746e-005
Heightened Def Con from 6.06746e-005 to 6.06746e-005
Heightened Def Con from 6.06746e-005 to 6.06747e-005
Heightened Def Con from 6.06747e-005 to 6.06757e-005
Heightened Def Con from 6.06757e-005 to 6.06757e-005
Heightened Def Con from 6.06757e-005 to 6.06757e-005
Heightened Def Con from 6.06757e-005 to 6.06758e-005
Heightened Def Con from 6.06766e-005 to 6.06766e-005
Heightened Def Con from 6.06766e-005 to 6.06766e-005
Heightened Def Con from 6.06766e-005 to 6.06766e-005
Heightened Def Con from 6.06766e-005 to 6.06766e-005
Heightened Def Con from 6.06766e-005 to 6.06776e-005
Heightened Def Con from 6.06776e-005 to 6.06777e-005
Heightened Def Con from 6.06777e-005 to 6.06777e-005
Heightened Def Con from 6.06777e-005 to 6.06787e-005
Heightened Def Con from 6.06787e-005 to 6.06787e-005
Heightened Def Con from 6.06787e-005 to 6.06788e-005
Heightened Def Con from 6.06788e-005 to 6.0679e-005
Heightened Def Con from 6.0679e-005 to 6.0679e-005
Heightened Def Con from 6.0679e-005 to 6.0679e-005
Heightened Def Con from 6.0679e-005 to 6.0679e-005
Heightened Def Con from 6.0679e-005 to 6.068e-005
Heightened Def Con from 6.068e-005 to 6.068e-005
Heightened Def Con from 6.068e-005 to 6.0681e-005
Heightened Def Con from 6.0681e-005 to 6.0681e-005
Heightened Def Con from 6.0681e-005 to 6.06811e-005
Heightened Def Con from 6.06811e-005 to 6.06821e-005
Heightened Def Con from 6.06821e-005 to 6.06821e-005
Heightened Def Con from 6.06821e-005 to 6.06821e-005
Heightened Def Con from 6.06821e-005 to 6.06821e-005
Heightened Def Con from 6.06821e-005 to 6.06821e-005
Heightened Def Con from 6.06821e-005 to 6.06822e-005
Heightened Def Con from 6.06825e-005 to 6.06825e-005
Heightened Def Con from 6.06825e-005 to 6.06825e-005
Heightened Def Con from 6.06825e-005 to 6.06836e-005
Heightened Def Con from 6.06836e-005 to 6.06846e-005
Heightened Def Con from 6.06849e-005 to 6.0685e-005
Heightened Def Con from 6.0685e-005 to 6.0686e-005
Heightened Def Con from 6.06868e-005 to 6.06868e-005
Heightened Def Con from 6.06868e-005 to 6.06868e-005
Heightened Def Con from 6.06868e-005 to 6.06868e-005
Heightened Def Con from 6.06868e-005 to 6.06869e-005
Heightened Def Con from 6.06869e-005 to 6.0687e-005
Heightened Def Con from 6.0687e-005 to 6.0688e-005
Heightened Def Con from 6.0694e-005 to 6.06941e-005
Heightened Def Con from 6.06941e-005 to 6.06951e-005
Heightened Def Con from 6.06953e-005 to 6.06963e-005
Heightened Def Con from 6.06964e-005 to 6.06964e-005
Heightened Def Con from 6.06964e-005 to 6.06964e-005
Heightened Def Con from 6.06964e-005 to 6.06964e-005
Heightened Def Con from 6.06964e-005 to 6.06974e-005
Heightened Def Con from 6.06986e-005 to 6.06986e-005
Heightened Def Con from 6.06986e-005 to 6.06986e-005
Heightened Def Con from 6.06986e-005 to 6.06986e-005
Heightened Def Con from 6.06986e-005 to 6.06986e-005
Heightened Def Con from 6.06986e-005 to 6.06988e-005
Heightened Def Con from 6.06988e-005 to 6.06989e-005
Heightened Def Con from 6.06989e-005 to 6.06989e-005
Heightened Def Con from 6.0699e-005 to 6.07e-005
Heightened Def Con from 6.07e-005 to 6.07e-005
Heightened Def Con from 6.07e-005 to 6.07e-005
Heightened Def Con from 6.07e-005 to 6.07001e-005
Heightened Def Con from 6.07002e-005 to 6.07002e-005
Heightened Def Con from 6.07002e-005 to 6.07012e-005
Heightened Def Con from 6.07012e-005 to 6.07012e-005
Heightened Def Con from 6.07012e-005 to 6.07012e-005
Heightened Def Con from 6.07012e-005 to 6.07012e-005
Heightened Def Con from 6.07012e-005 to 6.07022e-005
Heightened Def Con from 6.07083e-005 to 6.07083e-005
Heightened Def Con from 6.07083e-005 to 6.07083e-005
Heightened Def Con from 6.07083e-005 to 6.07083e-005
Heightened Def Con from 6.07083e-005 to 6.07093e-005
Heightened Def Con from 6.07093e-005 to 6.07095e-005
Heightened Def Con from 6.07095e-005 to 6.07095e-005
Heightened Def Con from 6.07095e-005 to 6.07095e-005
Heightened Def Con from 6.07095e-005 to 6.07095e-005
Heightened Def Con from 6.07095e-005 to 6.07097e-005
Heightened Def Con from 6.07099e-005 to 6.071e-005
Heightened Def Con from 6.071e-005 to 6.07102e-005
Heightened Def Con from 6.07102e-005 to 6.07103e-005
Heightened Def Con from 6.07103e-005 to 6.07103e-005
Heightened Def Con from 6.07103e-005 to 6.07104e-005
Heightened Def Con from 6.07105e-005 +to 6.07106e-005
Heightened Def Con from 6.07106e-005 to 6.07107e-005
Heightened Def Con from 6.07108e-005 to 6.07108e-005
Heightened Def Con from 6.07108e-005 to 6.07109e-005
Heightened Def Con from 6.07109e-005 to 6.07109e-005
Heightened Def Con from 6.07109e-005 to 6.0711e-005
Heightened Def Con from 6.0711e-005 to 6.0712e-005
Heightened Def Con from 6.0714e-005 to 6.0714e-005
Heightened Def Con from 6.0714e-005 to 6.07142e-005
Heightened Def Con from 6.07142e-005 to 6.07142e-005
Heightened Def Con from 6.07142e-005 to 6.07152e-005
Heightened Def Con from 6.07152e-005 to 6.07152e-005
Heightened Def Con from 6.07152e-005 to 6.07153e-005
Heightened Def Con from 6.07153e-005 to 6.07153e-005
Heightened Def Con from 6.07153e-005 to 6.07153e-005
Heightened Def Con from 6.07153e-005 to 6.07153e-005
Heightened Def Con from 6.07153e-005 to 6.07163e-005
Heightened Def Con from 6.07163e-005 to 6.07163e-005
Heightened Def Con from 6.07163e-005 to 6.07163e-005
Heightened Def Con from 6.07163e-005 to 6.07173e-005
Heightened Def Con from 6.07173e-005 to 6.07173e-005
Heightened Def Con from 6.07173e-005 to 6.07173e-005
Heightened Def Con from 6.07173e-005 to 6.07175e-005
Heightened Def Con from 6.07175e-005 +to 6.07175e-005
Heightened Def Con from 6.07175e-005 to 6.07175e-005
Heightened Def Con from 6.07175e-005 to 6.07175e-005
Heightened Def Con from 6.07175e-005 to 6.07175e-005
Heightened Def Con from 6.07175e-005 to 6.07175e-005
Heightened Def Con from 6.07175e-005 to 6.07176e-005
Heightened Def Con from 6.07176e-005 to 6.07176e-005
Heightened Def Con from 6.07176e-005 to 6.07178e-005
Heightened Def Con from 6.07178e-005 to 6.07179e-005
Heightened Def Con from 6.07179e-005 to 6.07179e-005
Heightened Def Con from 6.07179e-005 to 6.07179e-005
Heightened Def Con from 6.07179e-005 to 6.0718e-005
Heightened Def Con from 6.07181e-005 to 6.07181e-005
Heightened Def Con from 6.07181e-005 to 6.07181e-005
Heightened Def Con from 6.07181e-005 to 6.07182e-005
Heightened Def Con from 6.07182e-005 to 6.07182e-005
Heightened Def Con from 6.07182e-005 to 6.07182e-005
Heightened Def Con from 6.07182e-005 to 6.07182e-005
Heightened Def Con from 6.07182e-005 to 6.07182e-005
Heightened Def Con from 6.07182e-005 to 6.07183e-005
Heightened Def Con from 6.07183e-005 to 6.07183e-005
Heightened Def Con from 6.07183e-005 +to 6.07184e-005
Heightened Def Con from 6.07187e-005 to 6.07188e-005
Heightened Def Con from 6.07195e-005 to 6.07196e-005
Heightened Def Con from 6.07196e-005 to 6.07206e-005
Heightened Def Con from 6.07206e-005 +to 6.07207e-005
Heightened Def Con from 6.07207e-005 +to 6.07217e-005
Heightened Def Con from 6.07217e-005 to 6.07227e-005
Heightened Def Con from 6.07227e-005 to 6.07227e-005
Heightened Def Con from 6.07227e-005 to 6.07227e-005
Heightened Def Con from 6.07227e-005 to 6.07237e-005
Heightened Def Con from 6.07237e-005 to 6.07237e-005
Heightened Def Con from 6.07237e-005 to 6.07247e-005
Heightened Def Con from 6.07247e-005 to 6.07249e-005
Heightened Def Con from 6.07249e-005 to 6.07249e-005
Heightened Def Con from 6.07249e-005 to 6.07249e-005
Heightened Def Con from 6.07249e-005 to 6.07249e-005
Heightened Def Con from 6.07249e-005 to 6.07249e-005
Heightened Def Con from 6.07249e-005 to 6.07259e-005
Heightened Def Con from 6.07259e-005 to 6.07259e-005
Heightened Def Con from 6.07259e-005 to 6.07269e-005
Heightened Def Con from 6.07269e-005 to 6.07269e-005
Heightened Def Con from 6.07269e-005 +to 6.07269e-005
Heightened Def Con from 6.07269e-005 to 6.0727e-005
Heightened Def Con from 6.07271e-005 to 6.07271e-005
Heightened Def Con from 6.07271e-005 to 6.07271e-005
Heightened Def Con from 6.07271e-005 to 6.07272e-005
Heightened Def Con from 6.07272e-005 to 6.07272e-005
Heightened Def Con from 6.07272e-005 to 6.07274e-005
Heightened Def Con from 6.07274e-005 to 6.07284e-005
Heightened Def Con from 6.07284e-005 to 6.07285e-005
Heightened Def Con from 6.07285e-005 to 6.07285e-005
Heightened Def Con from 6.07285e-005 to 6.07295e-005
Heightened Def Con from 6.07295e-005 to 6.07305e-005
Heightened Def Con from 6.07325e-005 to 6.07325e-005
Heightened Def Con from 6.07325e-005 to 6.07335e-005
Heightened Def Con from 6.07335e-005 +to 6.07335e-005
Heightened Def Con from 6.07335e-005 to 6.07336e-005
Heightened Def Con from 6.07336e-005 to 6.07336e-005
Heightened Def Con from 6.07336e-005 to 6.07337e-005
Heightened Def Con from 6.07337e-005 to 6.07347e-005
Heightened Def Con from 6.07347e-005 to 6.07357e-005
Heightened Def Con from 6.07357e-005 to 6.07358e-005
Heightened Def Con from 6.07366e-005 to 6.07376e-005
Heightened Def Con from 6.07396e-005 +to 6.07396e-005
Heightened Def Con from 6.07396e-005 to 6.07396e-005
Heightened Def Con from 6.07396e-005 to 6.07406e-005
Heightened Def Con from 6.07406e-005 to 6.07406e-005
Heightened Def Con from 6.07406e-005 to 6.07406e-005
Heightened Def Con from 6.07406e-005 to 6.07416e-005
Heightened Def Con from 6.07416e-005 to 6.07417e-005
Heightened Def Con from 6.07417e-005 to 6.07418e-005
Heightened Def Con from 6.07419e-005 to 6.07419e-005
Heightened Def Con from 6.07419e-005 to 6.0742e-005
Heightened Def Con from 6.0742e-005 to 6.07421e-005
Heightened Def Con from 6.07422e-005 to 6.07422e-005
Heightened Def Con from 6.07422e-005 to 6.07422e-005
Heightened Def Con from 6.07422e-005 to 6.07422e-005
Heightened Def Con from 6.07422e-005 to 6.07422e-005
Heightened Def Con from 6.07422e-005 to 6.07422e-005
Heightened Def Con from 6.07422e-005 to 6.07432e-005
Heightened Def Con from 6.07432e-005 to 6.07432e-005
Heightened Def Con from 6.07432e-005 to 6.07452e-005
Heightened Def Con from 6.07478e-005 to 6.07479e-005
Heightened Def Con from 6.07479e-005 to 6.07479e-005
Heightened Def Con from 6.07479e-005 +to 6.07479e-005
Heightened Def Con from 6.07479e-005 to 6.07479e-005
Heightened Def Con from 6.07479e-005 to 6.07479e-005
Heightened Def Con from 6.07479e-005 to 6.07479e-005
Heightened Def Con from 6.07479e-005 to 6.07479e-005
Heightened Def Con from 6.07479e-005 to 6.07479e-005
Heightened Def Con from 6.07479e-005 +to 6.07479e-005
Heightened Def Con from 6.07479e-005 to 6.07489e-005
Heightened Def Con from 6.0749e-005 to 6.0749e-005
Heightened Def Con from 6.0749e-005 to 6.0749e-005
Heightened Def Con from 6.0749e-005 to 6.0749e-005
Heightened Def Con from 6.0749e-005 to 6.0749e-005
Heightened Def Con from 6.0749e-005 to 6.07491e-005
Heightened Def Con from 6.07491e-005 to 6.07501e-005
Heightened Def Con from 6.07509e-005 +to 6.07509e-005
Heightened Def Con from 6.07509e-005 to 6.07511e-005
Heightened Def Con from 6.07511e-005 to 6.07511e-005
Heightened Def Con from 6.07511e-005 to 6.07511e-005
Heightened Def Con from 6.07511e-005 to 6.07511e-005
Heightened Def Con from 6.07511e-005 to 6.07511e-005
Heightened Def Con from 6.07511e-005 +to 6.07521e-005
Heightened Def Con from 6.07521e-005 to 6.07521e-005
Heightened Def Con from 6.07521e-005 to 6.07522e-005
Heightened Def Con from 6.07522e-005 to 6.07522e-005
Heightened Def Con from 6.07522e-005 to 6.07532e-005
Heightened Def Con from 6.07553e-005 to 6.07553e-005
Heightened Def Con from 6.07553e-005 to 6.07555e-005
Heightened Def Con from 6.07555e-005 to 6.07555e-005
Heightened Def Con from 6.07555e-005 to 6.07555e-005
Heightened Def Con from 6.07555e-005 +to 6.07565e-005
Heightened Def Con from 6.07565e-005 to 6.07575e-005
Heightened Def Con from 6.07575e-005 to 6.07585e-005
Heightened Def Con from 6.07605e-005 +to 6.07615e-005
Heightened Def Con from 6.07617e-005 to 6.07617e-005
Heightened Def Con from 6.07617e-005 to 6.07627e-005
Heightened Def Con from 6.07647e-005 to 6.07649e-005
Heightened Def Con from 6.0765e-005 to 6.0766e-005
Heightened Def Con from 6.0766e-005 to 6.0766e-005
Heightened Def Con from 6.0766e-005 to 6.07661e-005
Heightened Def Con from 6.07661e-005 to 6.07661e-005
Heightened Def Con from 6.07661e-005 +to 6.07662e-005
Heightened Def Con from 6.07663e-005 to 6.07664e-005
Heightened Def Con from 6.07664e-005 to 6.07665e-005
Heightened Def Con from 6.07665e-005 to 6.07666e-005
Heightened Def Con from 6.07666e-005 +to 6.07666e-005
Heightened Def Con from 6.07666e-005 to 6.07668e-005
Heightened Def Con from 6.07668e-005 to 6.07668e-005
Heightened Def Con from 6.07668e-005 to 6.07669e-005
Heightened Def Con from 6.07669e-005 +to 6.07679e-005
Heightened Def Con from 6.07679e-005 to 6.07679e-005
Heightened Def Con from 6.07679e-005 to 6.07679e-005
Heightened Def Con from 6.07679e-005 +to 6.07679e-005
Heightened Def Con from 6.07679e-005 to 6.07689e-005
Heightened Def Con from 6.07689e-005 to 6.07689e-005
Heightened Def Con from 6.07689e-005 to 6.07689e-005
Heightened Def Con from 6.07689e-005 to 6.07699e-005
Heightened Def Con from 6.07699e-005 to 6.07699e-005
Heightened Def Con from 6.07699e-005 to 6.07699e-005
Heightened Def Con from 6.07699e-005 to 6.07699e-005
Heightened Def Con from 6.07699e-005 to 6.07699e-005
Heightened Def Con from 6.07699e-005 to 6.077e-005
Heightened Def Con from 6.077e-005 +to 6.077e-005
Heightened Def Con from 6.077e-005 to 6.077e-005
Heightened Def Con from 6.077e-005 to 6.077e-005
Heightened Def Con from 6.077e-005 to 6.077e-005
Heightened Def Con from 6.077e-005 to 6.07701e-005
Heightened Def Con from 6.07701e-005 to 6.07702e-005
Heightened Def Con from 6.07702e-005 to 6.07703e-005
Heightened Def Con from 6.07703e-005 to 6.07705e-005
Heightened Def Con from 6.07705e-005 to 6.07705e-005
Heightened Def Con from 6.07705e-005 to 6.07705e-005
Heightened Def Con from 6.07705e-005 to 6.07705e-005
Heightened Def Con from 6.07705e-005 to 6.07715e-005
Heightened Def Con from 6.07715e-005 to 6.07715e-005
Heightened Def Con from 6.07715e-005 to 6.07715e-005
Heightened Def Con from 6.07715e-005 to 6.07715e-005
Heightened Def Con from 6.07715e-005 +to 6.07715e-005
Heightened Def Con from 6.07715e-005 to 6.07717e-005
Heightened Def Con from 6.07719e-005 to 6.07729e-005
Heightened Def Con from 6.07729e-005 to 6.07729e-005
Heightened Def Con from 6.07729e-005 to 6.0773e-005
Heightened Def Con from 6.0773e-005 to 6.0773e-005
Heightened Def Con from 6.0773e-005 to 6.0773e-005
Heightened Def Con from 6.0773e-005 to 6.07731e-005
Heightened Def Con from 6.07731e-005 to 6.07731e-005
Heightened Def Con from 6.07731e-005 to 6.07732e-005
Heightened Def Con from 6.07732e-005 to 6.07733e-005
Heightened Def Con from 6.07733e-005 to 6.07733e-005
Heightened Def Con from 6.07733e-005 to 6.07733e-005
Heightened Def Con from 6.07733e-005 to 6.07733e-005
Heightened Def Con from 6.07733e-005 to 6.07733e-005
Heightened Def Con from 6.07733e-005 to 6.07733e-005
Heightened Def Con from 6.07733e-005 to 6.07735e-005
Heightened Def Con from 6.07735e-005 to 6.07735e-005
Heightened Def Con from 6.07735e-005 to 6.07735e-005
Heightened Def Con from 6.07735e-005 to 6.07736e-005
Heightened Def Con from 6.07736e-005 +to 6.07746e-005
Heightened Def Con from 6.07748e-005 to 6.07758e-005
Heightened Def Con from 6.07759e-005 to 6.07759e-005
Heightened Def Con from 6.07759e-005 to 6.0776e-005
Heightened Def Con from 6.0776e-005 to 6.0776e-005
Heightened Def Con from 6.0776e-005 to 6.0776e-005
Heightened Def Con from 6.0776e-005 to 6.0777e-005
Heightened Def Con from 6.0777e-005 to 6.0777e-005
Heightened Def Con from 6.0777e-005 to 6.07772e-005
Heightened Def Con from 6.07772e-005 to 6.07773e-005
Heightened Def Con from 6.07773e-005 to 6.07773e-005
Heightened Def Con from 6.07773e-005 to 6.07774e-005
Heightened Def Con from 6.07774e-005 to 6.07775e-005
Heightened Def Con from 6.07775e-005 to 6.07785e-005
Heightened Def Con from 6.07785e-005 to 6.07795e-005
Heightened Def Con from 6.07815e-005 to 6.07818e-005
Heightened Def Con from 6.07818e-005 to 6.07819e-005
Heightened Def Con from 6.07819e-005 to 6.07819e-005
Heightened Def Con from 6.07819e-005 to 6.07819e-005
Heightened Def Con from 6.07819e-005 to 6.07821e-005
Heightened Def Con from 6.07821e-005 +to 6.07831e-005
Heightened Def Con from 6.07833e-005 to 6.07843e-005
Heightened Def Con from 6.07843e-005 to 6.07843e-005
Heightened Def Con from 6.07843e-005 to 6.07844e-005
Heightened Def Con from 6.07847e-005 to 6.07847e-005
Heightened Def Con from 6.07847e-005 to 6.07857e-005
Heightened Def Con from 6.07857e-005 to 6.07857e-005
Heightened Def Con from 6.07857e-005 to 6.07857e-005
Heightened Def Con from 6.07857e-005 to 6.07857e-005
Heightened Def Con from 6.07857e-005 to 6.07858e-005
Heightened Def Con from 6.07858e-005 +to 6.0786e-005
Heightened Def Con from 6.0786e-005 to 6.0786e-005
Heightened Def Con from 6.0786e-005 to 6.07861e-005
Heightened Def Con from 6.07861e-005 to 6.07862e-005
Heightened Def Con from 6.0787e-005 to 6.07871e-005
Heightened Def Con from 6.07871e-005 to 6.07871e-005
Heightened Def Con from 6.07871e-005 to 6.07872e-005
Heightened Def Con from 6.07875e-005 to 6.07875e-005
Heightened Def Con from 6.07875e-005 to 6.07885e-005
Heightened Def Con from 6.07906e-005 to 6.07916e-005
Heightened Def Con from 6.07916e-005 to 6.07926e-005
Heightened Def Con from 6.07926e-005 to 6.07926e-005
Heightened Def Con from 6.07926e-005 to 6.07927e-005
Heightened Def Con from 6.07927e-005 to 6.07927e-005
Heightened Def Con from 6.07927e-005 to 6.07937e-005
Heightened Def Con from 6.07945e-005 +to 6.07945e-005
Heightened Def Con from 6.07945e-005 to 6.07955e-005
Heightened Def Con from 6.07955e-005 to 6.07956e-005
Heightened Def Con from 6.07956e-005 ++to 6.07956e-005
Heightened Def Con from 6.07956e-005 to 6.07957e-005
Heightened Def Con from 6.07957e-005 to 6.07957e-005
Heightened Def Con from 6.07957e-005 +to 6.07957e-005
Heightened Def Con from 6.07957e-005 to 6.07957e-005
Heightened Def Con from 6.07957e-005 to 6.07957e-005
Heightened Def Con from 6.07957e-005 to 6.07958e-005
Heightened Def Con from 6.07958e-005 +to 6.07959e-005
Heightened Def Con from 6.07959e-005 to 6.07959e-005
Heightened Def Con from 6.07959e-005 +to 6.07969e-005
Heightened Def Con from 6.07969e-005 +to 6.07969e-005
Heightened Def Con from 6.07969e-005 to 6.07969e-005
Heightened Def Con from 6.07969e-005 to 6.07969e-005
Heightened Def Con from 6.07969e-005 to 6.0797e-005
Heightened Def Con from 6.07973e-005 to 6.07973e-005
Heightened Def Con from 6.07973e-005 to 6.07983e-005
Heightened Def Con from 6.07983e-005 to 6.07984e-005
Heightened Def Con from 6.07984e-005 to 6.07985e-005
Heightened Def Con from 6.07988e-005 +to 6.07998e-005
Heightened Def Con from 6.07998e-005 to 6.07999e-005
Heightened Def Con from 6.08002e-005 +to 6.08002e-005
Heightened Def Con from 6.08002e-005 +to 6.08012e-005
Heightened Def Con from 6.08013e-005 to 6.08013e-005
Heightened Def Con from 6.08013e-005 to 6.08023e-005
Heightened Def Con from 6.08023e-005 to 6.08024e-005
Heightened Def Con from 6.08024e-005 to 6.08024e-005
Heightened Def Con from 6.08024e-005 to 6.08024e-005
Heightened Def Con from 6.08024e-005 to 6.08034e-005
Heightened Def Con from 6.08034e-005 to 6.08034e-005
Heightened Def Con from 6.08034e-005 to 6.08044e-005
Heightened Def Con from 6.08044e-005 to 6.08044e-005
Heightened Def Con from 6.08044e-005 to 6.08044e-005
Heightened Def Con from 6.08044e-005 to 6.08046e-005
Heightened Def Con from 6.08046e-005 to 6.08056e-005
Heightened Def Con from 6.08056e-005 to 6.08056e-005
Heightened Def Con from 6.08056e-005 to 6.08066e-005
Heightened Def Con from 6.08066e-005 to 6.08066e-005
Heightened Def Con from 6.08066e-005 to 6.08066e-005
Heightened Def Con from 6.08066e-005 to 6.08066e-005
Heightened Def Con from 6.08066e-005 to 6.08066e-005
Heightened Def Con from 6.08066e-005 to 6.08067e-005
Heightened Def Con from 6.08067e-005 to 6.08068e-005
Heightened Def Con from 6.08068e-005 to 6.08068e-005
Heightened Def Con from 6.08068e-005 to 6.08068e-005
Heightened Def Con from 6.08068e-005 to 6.08068e-005
Heightened Def Con from 6.08068e-005 to 6.08068e-005
Heightened Def Con from 6.08068e-005 to 6.0807e-005
Heightened Def Con from 6.0807e-005 to 6.0808e-005
Heightened Def Con from 6.081e-005 to 6.0811e-005
Heightened Def Con from 6.0817e-005 to 6.0818e-005
Heightened Def Con from 6.082e-005 to 6.082e-005
Heightened Def Con from 6.082e-005 to 6.082e-005
Heightened Def Con from 6.082e-005 to 6.082e-005
Heightened Def Con from 6.082e-005 to 6.082e-005
Heightened Def Con from 6.082e-005 to 6.082e-005
Heightened Def Con from 6.082e-005 to 6.082e-005
Heightened Def Con from 6.082e-005 +to 6.08201e-005
Heightened Def Con from 6.08201e-005 to 6.08201e-005
Heightened Def Con from 6.08201e-005 to 6.08201e-005
Heightened Def Con from 6.08201e-005 to 6.08202e-005
Heightened Def Con from 6.08202e-005 to 6.08212e-005
Heightened Def Con from 6.08214e-005 +to 6.08214e-005
Heightened Def Con from 6.08214e-005 to 6.08214e-005
Heightened Def Con from 6.08214e-005 to 6.08214e-005
Heightened Def Con from 6.08214e-005 +to 6.08224e-005
Heightened Def Con from 6.08224e-005 to 6.08224e-005
Heightened Def Con from 6.08224e-005 to 6.08224e-005
Heightened Def Con from 6.08224e-005 to 6.08234e-005
Heightened Def Con from 6.08237e-005 to 6.08247e-005
Heightened Def Con from 6.08267e-005 to 6.08267e-005
Heightened Def Con from 6.08267e-005 to 6.08268e-005
Heightened Def Con from 6.08268e-005 to 6.08278e-005
Heightened Def Con from 6.08305e-005 to 6.08315e-005
Heightened Def Con from 6.08335e-005 to 6.08345e-005
Heightened Def Con from 6.08345e-005 to 6.08346e-005
Heightened Def Con from 6.08347e-005 to 6.08348e-005
Heightened Def Con from 6.08348e-005 to 6.08348e-005
Heightened Def Con from 6.08348e-005 to 6.08348e-005
Heightened Def Con from 6.08348e-005 to 6.08348e-005
Heightened Def Con from 6.08348e-005 to 6.08348e-005
Heightened Def Con from 6.08348e-005 to 6.08348e-005
Heightened Def Con from 6.08348e-005 to 6.08358e-005
Heightened Def Con from 6.08358e-005 to 6.08358e-005
Heightened Def Con from 6.08358e-005 to 6.08368e-005
Heightened Def Con from 6.08368e-005 +to 6.08378e-005
Heightened Def Con from 6.08398e-005 to 6.08399e-005
Heightened Def Con from 6.08399e-005 to 6.08399e-005
Heightened Def Con from 6.08399e-005 +to 6.08399e-005
Heightened Def Con from 6.08399e-005 to 6.08399e-005
Heightened Def Con from 6.08399e-005 to 6.08399e-005
Heightened Def Con from 6.08399e-005 +to 6.08399e-005
Heightened Def Con from 6.08399e-005 to 6.08399e-005
Heightened Def Con from 6.08399e-005 +to 6.08409e-005
Heightened Def Con from 6.08412e-005 to 6.08412e-005
Heightened Def Con from 6.08412e-005 +to 6.08422e-005
Heightened Def Con from 6.08422e-005 to 6.08432e-005
Heightened Def Con from 6.08434e-005 to 6.08444e-005
Heightened Def Con from 6.08444e-005 to 6.08444e-005
Heightened Def Con from 6.08444e-005 to 6.08444e-005
Heightened Def Con from 6.08444e-005 to 6.08454e-005
Heightened Def Con from 6.08458e-005 to 6.08468e-005
Heightened Def Con from 6.08488e-005 to 6.08488e-005
Heightened Def Con from 6.08488e-005 to 6.08488e-005
Heightened Def Con from 6.08488e-005 to 6.08488e-005
Heightened Def Con from 6.08488e-005 to 6.08488e-005
Heightened Def Con from 6.08488e-005 to 6.0849e-005
Heightened Def Con from 6.08492e-005 to 6.08492e-005
Heightened Def Con from 6.08492e-005 to 6.08492e-005
Heightened Def Con from 6.08492e-005 to 6.08492e-005
Heightened Def Con from 6.08492e-005 to 6.08502e-005
Heightened Def Con from 6.08523e-005 to 6.08524e-005
Heightened Def Con from 6.08524e-005 to 6.08534e-005
Heightened Def Con from 6.08534e-005 to 6.08535e-005
Heightened Def Con from 6.08535e-005 to 6.08535e-005
Heightened Def Con from 6.08535e-005 to 6.08536e-005
Heightened Def Con from 6.08536e-005 to 6.08536e-005
Heightened Def Con from 6.08537e-005 to 6.08537e-005
Heightened Def Con from 6.08537e-005 +to 6.08537e-005
Heightened Def Con from 6.08537e-005 to 6.08537e-005
Heightened Def Con from 6.08537e-005 to 6.08537e-005
Heightened Def Con from 6.08537e-005 to 6.08537e-005
Heightened Def Con from 6.08537e-005 to 6.08538e-005
Heightened Def Con from 6.08538e-005 to 6.08538e-005
Heightened Def Con from 6.08538e-005 +to 6.08539e-005
Heightened Def Con from 6.08539e-005 to 6.08539e-005
Heightened Def Con from 6.08539e-005 to 6.08539e-005
Heightened Def Con from 6.08539e-005 to 6.0854e-005
Heightened Def Con from 6.0854e-005 to 6.0855e-005
Heightened Def Con from 6.0855e-005 to 6.08551e-005
Heightened Def Con from 6.08551e-005 to 6.08552e-005
Heightened Def Con from 6.08552e-005 +to 6.08553e-005
Heightened Def Con from 6.08553e-005 to 6.08555e-005
Heightened Def Con from 6.08555e-005 to 6.08555e-005
Heightened Def Con from 6.08555e-005 to 6.08555e-005
Heightened Def Con from 6.08556e-005 to 6.08556e-005
Heightened Def Con from 6.08556e-005 to 6.08556e-005
Heightened Def Con from 6.08556e-005 to 6.08566e-005
Heightened Def Con from 6.08566e-005 +to 6.08568e-005
Heightened Def Con from 6.08568e-005 to 6.08578e-005
Heightened Def Con from 6.08598e-005 to 6.08599e-005
Heightened Def Con from 6.08599e-005 to 6.086e-005
Heightened Def Con from 6.08603e-005 to 6.08603e-005
Heightened Def Con from 6.08603e-005 to 6.08604e-005
Heightened Def Con from 6.08604e-005 to 6.08614e-005
Heightened Def Con from 6.08614e-005 to 6.08614e-005
Heightened Def Con from 6.08614e-005 to 6.08614e-005
Heightened Def Con from 6.08614e-005 to 6.08624e-005
Heightened Def Con from 6.08627e-005 to 6.08627e-005
Heightened Def Con from 6.08627e-005 +to 6.08627e-005
Heightened Def Con from 6.08627e-005 to 6.08628e-005
Heightened Def Con from 6.08628e-005 to 6.08629e-005
Heightened Def Con from 6.08629e-005 to 6.08629e-005
Heightened Def Con from 6.08629e-005 to 6.08629e-005
Heightened Def Con from 6.08629e-005 to 6.08639e-005
Heightened Def Con from 6.08641e-005 to 6.08642e-005
Heightened Def Con from 6.08645e-005 to 6.08645e-005
Heightened Def Con from 6.08645e-005 to 6.08645e-005
Heightened Def Con from 6.08645e-005 to 6.08645e-005
Heightened Def Con from 6.08645e-005 to 6.08646e-005
Heightened Def Con from 6.08649e-005 to 6.08649e-005
Heightened Def Con from 6.08649e-005 +to 6.08659e-005
Heightened Def Con from 6.08659e-005 to 6.08659e-005
Heightened Def Con from 6.08659e-005 to 6.0866e-005
Heightened Def Con from 6.08663e-005 to 6.08673e-005
Heightened Def Con from 6.08733e-005 to 6.08733e-005
Heightened Def Con from 6.08733e-005 to 6.08733e-005
Heightened Def Con from 6.08733e-005 to 6.08733e-005
Heightened Def Con from 6.08733e-005 to 6.08734e-005
Heightened Def Con from 6.08734e-005 to 6.08744e-005
Heightened Def Con from 6.08747e-005 to 6.08748e-005
Heightened Def Con from 6.08748e-005 to 6.08748e-005
Heightened Def Con from 6.08748e-005 to 6.0875e-005
Heightened Def Con from 6.0875e-005 to 6.0875e-005
Heightened Def Con from 6.0875e-005 +to 6.0876e-005
Heightened Def Con from 6.0876e-005 to 6.0876e-005
Heightened Def Con from 6.0876e-005 to 6.0876e-005
Heightened Def Con from 6.0876e-005 to 6.08761e-005
Heightened Def Con from 6.08761e-005 to 6.08771e-005
Heightened Def Con from 6.08771e-005 to 6.08781e-005
Heightened Def Con from 6.08781e-005 to 6.08781e-005
Heightened Def Con from 6.08781e-005 +to 6.08791e-005
Heightened Def Con from 6.08791e-005 to 6.08801e-005
Heightened Def Con from 6.08822e-005 to 6.08823e-005
Heightened Def Con from 6.08823e-005 to 6.08823e-005
Heightened Def Con from 6.08823e-005 to 6.08823e-005
Heightened Def Con from 6.08823e-005 to 6.08833e-005
Heightened Def Con from 6.08833e-005 to 6.08835e-005
Heightened Def Con from 6.08835e-005 to 6.08835e-005
Heightened Def Con from 6.08835e-005 +to 6.08845e-005
Heightened Def Con from 6.08865e-005 to 6.08865e-005
Heightened Def Con from 6.08865e-005 to 6.08865e-005
Heightened Def Con from 6.08865e-005 to 6.08866e-005
Heightened Def Con from 6.08866e-005 to 6.08866e-005
Heightened Def Con from 6.08866e-005 to 6.08876e-005
Heightened Def Con from 6.08896e-005 to 6.08896e-005
Heightened Def Con from 6.08896e-005 to 6.08896e-005
Heightened Def Con from 6.08896e-005 to 6.08896e-005
Heightened Def Con from 6.08896e-005 to 6.08896e-005
Heightened Def Con from 6.08896e-005 to 6.08896e-005
Heightened Def Con from 6.08896e-005 to 6.08896e-005
Heightened Def Con from 6.08896e-005 to 6.08896e-005
Heightened Def Con from 6.08896e-005 to 6.08906e-005
Heightened Def Con from 6.08966e-005 to 6.08976e-005
Heightened Def Con from 6.08976e-005 to 6.08976e-005
Heightened Def Con from 6.08977e-005 to 6.08977e-005
Heightened Def Con from 6.08977e-005 to 6.08977e-005
Heightened Def Con from 6.08977e-005 to 6.08977e-005
Heightened Def Con from 6.08977e-005 to 6.08978e-005
Heightened Def Con from 6.08978e-005 to 6.08978e-005
Heightened Def Con from 6.08978e-005 to 6.08988e-005
Heightened Def Con from 6.08988e-005 to 6.08988e-005
Heightened Def Con from 6.08988e-005 to 6.08988e-005
Heightened Def Con from 6.08988e-005 to 6.08998e-005
Heightened Def Con from 6.08998e-005 to 6.08998e-005
Heightened Def Con from 6.08998e-005 to 6.08998e-005
Heightened Def Con from 6.08998e-005 to 6.09008e-005
Heightened Def Con from 6.09008e-005 to 6.09008e-005
Heightened Def Con from 6.09008e-005 to 6.09018e-005
Heightened Def Con from 6.09018e-005 to 6.09019e-005
Heightened Def Con from 6.09019e-005 to 6.0902e-005
Heightened Def Con from 6.0902e-005 to 6.09021e-005
Heightened Def Con from 6.09024e-005 to 6.09024e-005
Heightened Def Con from 6.09024e-005 to 6.09024e-005
Heightened Def Con from 6.09024e-005 to 6.09025e-005
Heightened Def Con from 6.09025e-005 to 6.09035e-005
Heightened Def Con from 6.09035e-005 to 6.09045e-005
Heightened Def Con from 6.09046e-005 to 6.09046e-005
Heightened Def Con from 6.09046e-005 to 6.09046e-005
Heightened Def Con from 6.09046e-005 to 6.09046e-005
Heightened Def Con from 6.09046e-005 to 6.09056e-005
Heightened Def Con from 6.09056e-005 to 6.09056e-005
Heightened Def Con from 6.09056e-005 to 6.09066e-005
Heightened Def Con from 6.09066e-005 to 6.09067e-005
Heightened Def Con from 6.09067e-005 to 6.09077e-005
Heightened Def Con from 6.0908e-005 to 6.0908e-005
Heightened Def Con from 6.0908e-005 to 6.0909e-005
Heightened Def Con from 6.09092e-005 to 6.09092e-005
Heightened Def Con from 6.09092e-005 to 6.09102e-005
Heightened Def Con from 6.09102e-005 to 6.09112e-005
Heightened Def Con from 6.09112e-005 to 6.09122e-005
Heightened Def Con from 6.09147e-005 to 6.09147e-005
Heightened Def Con from 6.09147e-005 to 6.09147e-005
Heightened Def Con from 6.09147e-005 to 6.09148e-005
Heightened Def Con from 6.09148e-005 +to 6.09149e-005
Heightened Def Con from 6.09151e-005 to 6.09151e-005
Heightened Def Con from 6.09151e-005 to 6.09153e-005
Heightened Def Con from 6.09153e-005 to 6.09163e-005
Heightened Def Con from 6.09163e-005 to 6.09163e-005
Heightened Def Con from 6.09163e-005 +to 6.09173e-005
Heightened Def Con from 6.09173e-005 to 6.09173e-005
Heightened Def Con from 6.09173e-005 to 6.09173e-005
Heightened Def Con from 6.09173e-005 to 6.09174e-005
Heightened Def Con from 6.09176e-005 to 6.09186e-005
Heightened Def Con from 6.09186e-005 to 6.09196e-005
Heightened Def Con from 6.09197e-005 to 6.09207e-005
Heightened Def Con from 6.09209e-005 to 6.09209e-005
Heightened Def Con from 6.09209e-005 to 6.09209e-005
Heightened Def Con from 6.09209e-005 to 6.09219e-005
Heightened Def Con from 6.09219e-005 to 6.0922e-005
Heightened Def Con from 6.0922e-005 to 6.0922e-005
Heightened Def Con from 6.0922e-005 to 6.0922e-005
Heightened Def Con from 6.0922e-005 to 6.0922e-005
Heightened Def Con from 6.0922e-005 to 6.0922e-005
Heightened Def Con from 6.0922e-005 to 6.0922e-005
Heightened Def Con from 6.0922e-005 +to 6.0923e-005
Heightened Def Con from 6.0923e-005 to 6.0923e-005
Heightened Def Con from 6.0923e-005 to 6.0925e-005
Heightened Def Con from 6.0925e-005 to 6.0926e-005
Heightened Def Con from 6.0926e-005 to 6.0927e-005
Heightened Def Con from 6.0927e-005 to 6.0927e-005
Heightened Def Con from 6.0927e-005 to 6.09272e-005
Heightened Def Con from 6.09272e-005 to 6.09282e-005
Heightened Def Con from 6.09282e-005 to 6.09292e-005
Heightened Def Con from 6.09292e-005 to 6.09292e-005
Heightened Def Con from 6.09292e-005 to 6.09293e-005
Heightened Def Con from 6.09296e-005 to 6.09296e-005
Heightened Def Con from 6.09296e-005 to 6.09296e-005
Heightened Def Con from 6.09296e-005 to 6.09306e-005
Heightened Def Con from 6.09306e-005 to 6.09307e-005
Heightened Def Con from 6.0931e-005 to 6.0931e-005
Heightened Def Con from 6.0931e-005 to 6.0931e-005
Heightened Def Con from 6.0931e-005 to 6.0932e-005
Heightened Def Con from 6.0932e-005 to 6.0933e-005
Heightened Def Con from 6.09332e-005 to 6.09342e-005
Heightened Def Con from 6.09343e-005 to 6.09343e-005
Heightened Def Con from 6.09343e-005 to 6.09344e-005
Heightened Def Con from 6.09344e-005 to 6.09354e-005
Heightened Def Con from 6.09354e-005 to 6.09364e-005
Heightened Def Con from 6.09364e-005 to 6.09364e-005
Heightened Def Con from 6.09364e-005 to 6.09365e-005
Heightened Def Con from 6.09365e-005 +to 6.09375e-005
Heightened Def Con from 6.09375e-005 to 6.09377e-005
Heightened Def Con from 6.09378e-005 to 6.09388e-005
Heightened Def Con from 6.09388e-005 to 6.09388e-005
Heightened Def Con from 6.09388e-005 to 6.09389e-005
Heightened Def Con from 6.0939e-005 to 6.09391e-005
Heightened Def Con from 6.09391e-005 +to 6.09392e-005
Heightened Def Con from 6.09395e-005 to 6.09395e-005
Heightened Def Con from 6.09395e-005 to 6.09395e-005
Heightened Def Con from 6.09395e-005 to 6.09395e-005
Heightened Def Con from 6.09395e-005 to 6.09405e-005
Heightened Def Con from 6.09405e-005 to 6.09405e-005
Heightened Def Con from 6.09405e-005 to 6.09415e-005
Heightened Def Con from 6.09415e-005 to 6.09415e-005
Heightened Def Con from 6.09415e-005 to 6.09417e-005
Heightened Def Con from 6.09419e-005 to 6.09419e-005
Heightened Def Con from 6.09419e-005 to 6.09429e-005
Heightened Def Con from 6.09429e-005 to 6.0943e-005
Heightened Def Con from 6.0943e-005 to 6.0943e-005
Heightened Def Con from 6.0943e-005 to 6.0943e-005
Heightened Def Con from 6.0943e-005 to 6.0944e-005
Heightened Def Con from 6.0944e-005 to 6.09442e-005
Heightened Def Con from 6.09444e-005 to 6.09444e-005
Heightened Def Con from 6.09444e-005 +to 6.09446e-005
Heightened Def Con from 6.09446e-005 +to 6.09446e-005
Heightened Def Con from 6.09446e-005 to 6.09446e-005
Heightened Def Con from 6.09446e-005 +to 6.09447e-005
Heightened Def Con from 6.09447e-005 +to 6.09457e-005
Heightened Def Con from 6.09457e-005 to 6.09467e-005
Heightened Def Con from 6.09467e-005 to 6.09477e-005
Heightened Def Con from 6.09477e-005 to 6.09478e-005
Heightened Def Con from 6.09481e-005 to 6.09481e-005
Heightened Def Con from 6.09481e-005 +to 6.09491e-005
Heightened Def Con from 6.09491e-005 to 6.09491e-005
Heightened Def Con from 6.09491e-005 to 6.09501e-005
Heightened Def Con from 6.09501e-005 +to 6.09501e-005
Heightened Def Con from 6.09501e-005 to 6.09501e-005
Heightened Def Con from 6.09501e-005 to 6.09511e-005
Heightened Def Con from 6.09512e-005 to 6.09522e-005
Heightened Def Con from 6.09522e-005 +to 6.09532e-005
Heightened Def Con from 6.09534e-005 to 6.09535e-005
Heightened Def Con from 6.09536e-005 +to 6.09546e-005
Heightened Def Con from 6.09546e-005 to 6.09556e-005
Heightened Def Con from 6.09556e-005 to 6.09557e-005
Heightened Def Con from 6.09559e-005 to 6.09561e-005
Heightened Def Con from 6.09561e-005 to 6.09561e-005
Heightened Def Con from 6.09561e-005 to 6.09571e-005
Heightened Def Con from 6.09571e-005 to 6.09581e-005
Heightened Def Con from 6.09581e-005 to 6.09581e-005
Heightened Def Con from 6.09581e-005 to 6.09581e-005
Heightened Def Con from 6.09581e-005 to 6.09581e-005
Heightened Def Con from 6.09581e-005 to 6.09582e-005
Heightened Def Con from 6.09582e-005 to 6.09582e-005
Heightened Def Con from 6.09582e-005 to 6.09582e-005
Heightened Def Con from 6.09582e-005 to 6.09582e-005
Heightened Def Con from 6.09582e-005 to 6.09582e-005
Heightened Def Con from 6.09582e-005 to 6.09582e-005
Heightened Def Con from 6.09583e-005 to 6.09583e-005
Heightened Def Con from 6.09583e-005 to 6.09583e-005
Heightened Def Con from 6.09583e-005 to 6.09583e-005
Heightened Def Con from 6.09583e-005 +to 6.09585e-005
Heightened Def Con from 6.09585e-005 to 6.09585e-005
Heightened Def Con from 6.09585e-005 to 6.09586e-005
Heightened Def Con from 6.09586e-005 to 6.09596e-005
Heightened Def Con from 6.09596e-005 to 6.09596e-005
Heightened Def Con from 6.09596e-005 to 6.09597e-005
Heightened Def Con from 6.09597e-005 to 6.09607e-005
Heightened Def Con from 6.09607e-005 to 6.09607e-005
Heightened Def Con from 6.09607e-005 +to 6.09617e-005
Heightened Def Con from 6.09617e-005 to 6.09618e-005
Heightened Def Con from 6.09619e-005 to 6.09629e-005
Heightened Def Con from 6.09629e-005 to 6.0963e-005
Heightened Def Con from 6.0963e-005 to 6.0963e-005
Heightened Def Con from 6.0963e-005 +to 6.0963e-005
Heightened Def Con from 6.0963e-005 to 6.0964e-005
Heightened Def Con from 6.09641e-005 to 6.09641e-005
Heightened Def Con from 6.09641e-005 to 6.09651e-005
Heightened Def Con from 6.09653e-005 to 6.09663e-005
Heightened Def Con from 6.09663e-005 to 6.09663e-005
Heightened Def Con from 6.09663e-005 to 6.09663e-005
Heightened Def Con from 6.09663e-005 to 6.09665e-005
Heightened Def Con from 6.09665e-005 +to 6.09666e-005
Heightened Def Con from 6.09666e-005 to 6.09666e-005
Heightened Def Con from 6.09666e-005 to 6.09667e-005
Heightened Def Con from 6.09667e-005 to 6.09667e-005
Heightened Def Con from 6.09667e-005 to 6.09669e-005
Heightened Def Con from 6.09669e-005 +to 6.09669e-005
Heightened Def Con from 6.09669e-005 to 6.09669e-005
Heightened Def Con from 6.09669e-005 to 6.09689e-005
Heightened Def Con from 6.09689e-005 to 6.09689e-005
Heightened Def Con from 6.09689e-005 to 6.09699e-005
Heightened Def Con from 6.097e-005 to 6.097e-005
Heightened Def Con from 6.097e-005 to 6.09701e-005
Heightened Def Con from 6.09701e-005 to 6.09711e-005
Heightened Def Con from 6.09711e-005 to 6.09712e-005
Heightened Def Con from 6.09712e-005 +to 6.09712e-005
Heightened Def Con from 6.09712e-005 to 6.09712e-005
Heightened Def Con from 6.09712e-005 to 6.09714e-005
Heightened Def Con from 6.09716e-005 to 6.09716e-005
Heightened Def Con from 6.09716e-005 to 6.09716e-005
Heightened Def Con from 6.09716e-005 to 6.09716e-005
Heightened Def Con from 6.09716e-005 to 6.09716e-005
Heightened Def Con from 6.09716e-005 to 6.09716e-005
Heightened Def Con from 6.09716e-005 to 6.09716e-005
Heightened Def Con from 6.09716e-005 to 6.09726e-005
Heightened Def Con from 6.09726e-005 to 6.09727e-005
Heightened Def Con from 6.09727e-005 to 6.09727e-005
Heightened Def Con from 6.09727e-005 to 6.09727e-005
Heightened Def Con from 6.09727e-005 +to 6.09728e-005
Heightened Def Con from 6.09728e-005 to 6.09728e-005
Heightened Def Con from 6.09728e-005 to 6.09728e-005
Heightened Def Con from 6.09728e-005 to 6.09729e-005
Heightened Def Con from 6.09729e-005 to 6.09729e-005
Heightened Def Con from 6.09729e-005 to 6.0973e-005
Heightened Def Con from 6.0973e-005 to 6.0974e-005
Heightened Def Con from 6.09743e-005 to 6.09743e-005
Heightened Def Con from 6.09743e-005 to 6.09753e-005
Heightened Def Con from 6.09753e-005 to 6.09753e-005
Heightened Def Con from 6.09753e-005 to 6.09753e-005
Heightened Def Con from 6.09753e-005 to 6.09753e-005
Heightened Def Con from 6.09753e-005 +to 6.09753e-005
Heightened Def Con from 6.09753e-005 to 6.09754e-005
Heightened Def Con from 6.09754e-005 to 6.09754e-005
Heightened Def Con from 6.09754e-005 to 6.09754e-005
Heightened Def Con from 6.09754e-005 to 6.09754e-005
Heightened Def Con from 6.09754e-005 to 6.09754e-005
Heightened Def Con from 6.09754e-005 to 6.09755e-005
Heightened Def Con from 6.09755e-005 to 6.09765e-005
Heightened Def Con from 6.09765e-005 to 6.09765e-005
Heightened Def Con from 6.09765e-005 +to 6.09765e-005
Heightened Def Con from 6.09765e-005 to 6.09766e-005
Heightened Def Con from 6.09766e-005 +to 6.09767e-005
Heightened Def Con from 6.09767e-005 to 6.09767e-005
Heightened Def Con from 6.09767e-005 to 6.09767e-005
Heightened Def Con from 6.09767e-005 +to 6.09777e-005
Heightened Def Con from 6.09777e-005 to 6.09777e-005
Heightened Def Con from 6.09777e-005 to 6.09777e-005
Heightened Def Con from 6.09777e-005 to 6.09787e-005
Heightened Def Con from 6.09807e-005 to 6.09807e-005
Heightened Def Con from 6.09807e-005 to 6.09808e-005
Heightened Def Con from 6.09808e-005 +to 6.09818e-005
Heightened Def Con from 6.09839e-005 to 6.09839e-005
Heightened Def Con from 6.09839e-005 to 6.09839e-005
Heightened Def Con from 6.09839e-005 to 6.09839e-005
Heightened Def Con from 6.09839e-005 to 6.09839e-005
Heightened Def Con from 6.09839e-005 to 6.0984e-005
Heightened Def Con from 6.0984e-005 to 6.09842e-005
Heightened Def Con from 6.09842e-005 +to 6.09842e-005
Heightened Def Con from 6.09842e-005 to 6.09842e-005
Heightened Def Con from 6.09842e-005 to 6.09852e-005
Heightened Def Con from 6.09852e-005 to 6.09852e-005
Heightened Def Con from 6.09852e-005 to 6.09853e-005
Heightened Def Con from 6.09853e-005 to 6.09854e-005
Heightened Def Con from 6.09854e-005 to 6.09864e-005
Heightened Def Con from 6.09884e-005 to 6.09884e-005
Heightened Def Con from 6.09884e-005 to 6.09885e-005
Heightened Def Con from 6.09885e-005 to 6.09885e-005
Heightened Def Con from 6.09885e-005 to 6.09885e-005
Heightened Def Con from 6.09885e-005 to 6.09886e-005
Heightened Def Con from 6.09886e-005 to 6.09896e-005
Heightened Def Con from 6.09896e-005 to 6.09896e-005
Heightened Def Con from 6.09896e-005 to 6.09898e-005
Heightened Def Con from 6.09898e-005 to 6.09899e-005
Heightened Def Con from 6.09899e-005 to 6.099e-005
Heightened Def Con from 6.099e-005 to 6.099e-005
Heightened Def Con from 6.099e-005 +to 6.09902e-005
Heightened Def Con from 6.09902e-005 to 6.09903e-005
Heightened Def Con from 6.09903e-005 to 6.09904e-005
Heightened Def Con from 6.09905e-005 to 6.09906e-005
Heightened Def Con from 6.09908e-005 to 6.09918e-005
Heightened Def Con from 6.09921e-005 to 6.09922e-005
Heightened Def Con from 6.09922e-005 to 6.09923e-005
Heightened Def Con from 6.09923e-005 to 6.09923e-005
Heightened Def Con from 6.09923e-005 to 6.09933e-005
Heightened Def Con from 6.09933e-005 to 6.09934e-005
Heightened Def Con from 6.09934e-005 to 6.09934e-005
Heightened Def Con from 6.09934e-005 to 6.09934e-005
Heightened Def Con from 6.09934e-005 to 6.09934e-005
Heightened Def Con from 6.09934e-005 to 6.09934e-005
Heightened Def Con from 6.09934e-005 +to 6.09935e-005
Heightened Def Con from 6.09935e-005 to 6.09936e-005
Heightened Def Con from 6.09936e-005 to 6.09936e-005
Heightened Def Con from 6.09936e-005 to 6.09936e-005
Heightened Def Con from 6.09936e-005 to 6.09937e-005
Heightened Def Con from 6.09937e-005 to 6.09938e-005
Heightened Def Con from 6.09938e-005 to 6.09938e-005
Heightened Def Con from 6.09938e-005 +to 6.09938e-005
Heightened Def Con from 6.09938e-005 to 6.09938e-005
Heightened Def Con from 6.09938e-005 to 6.09939e-005
Heightened Def Con from 6.09939e-005 to 6.09949e-005
Heightened Def Con from 6.09949e-005 to 6.0995e-005
Heightened Def Con from 6.0995e-005 to 6.0995e-005
Heightened Def Con from 6.0995e-005 +to 6.0996e-005
Heightened Def Con from 6.0998e-005 to 6.09981e-005
Heightened Def Con from 6.09981e-005 to 6.09983e-005
Heightened Def Con from 6.09983e-005 to 6.09993e-005
Heightened Def Con from 6.09993e-005 to 6.09993e-005
Heightened Def Con from 6.09993e-005 to 6.09994e-005
Heightened Def Con from 6.09994e-005 to 6.10004e-005
Heightened Def Con from 6.10004e-005 to 6.10004e-005
Heightened Def Con from 6.10004e-005 to 6.10014e-005
Heightened Def Con from 6.10014e-005 to 6.10014e-005
Heightened Def Con from 6.10014e-005 to 6.10016e-005
Heightened Def Con from 6.10016e-005 to 6.10017e-005
Heightened Def Con from 6.10025e-005 to 6.10035e-005
Heightened Def Con from 6.10038e-005 to 6.10038e-005
Heightened Def Con from 6.10038e-005 to 6.10048e-005
Heightened Def Con from 6.10108e-005 +to 6.10108e-005
Heightened Def Con from 6.10108e-005 to 6.10109e-005
Heightened Def Con from 6.10109e-005 to 6.10119e-005
Heightened Def Con from 6.10119e-005 to 6.1012e-005
Heightened Def Con from 6.1012e-005 to 6.1012e-005
Heightened Def Con from 6.1012e-005 to 6.10121e-005
Heightened Def Con from 6.10121e-005 to 6.10131e-005
Heightened Def Con from 6.10131e-005 to 6.10131e-005
Heightened Def Con from 6.10131e-005 to 6.10131e-005
Heightened Def Con from 6.10131e-005 +to 6.10131e-005
Heightened Def Con from 6.10131e-005 to 6.10132e-005
Heightened Def Con from 6.10132e-005 to 6.10142e-005
Heightened Def Con from 6.10163e-005 to 6.10164e-005
Heightened Def Con from 6.10164e-005 +to 6.10164e-005
Heightened Def Con from 6.10164e-005 to 6.10165e-005
Heightened Def Con from 6.10165e-005 to 6.10167e-005
Heightened Def Con from 6.10167e-005 ++to 6.10167e-005
Heightened Def Con from 6.10167e-005 to 6.10167e-005
Heightened Def Con from 6.10167e-005 to 6.10168e-005
Heightened Def Con from 6.10168e-005 to 6.10178e-005
Heightened Def Con from 6.10178e-005 to 6.10188e-005
Heightened Def Con from 6.10188e-005 to 6.10198e-005
Heightened Def Con from 6.10201e-005 to 6.10211e-005
Heightened Def Con from 6.10231e-005 to 6.10231e-005
Heightened Def Con from 6.10231e-005 to 6.10231e-005
Heightened Def Con from 6.10231e-005 to 6.10233e-005
Heightened Def Con from 6.10233e-005 to 6.10243e-005
Heightened Def Con from 6.10243e-005 to 6.10243e-005
Heightened Def Con from 6.10243e-005 to 6.10244e-005
Heightened Def Con from 6.10244e-005 to 6.10244e-005
Heightened Def Con from 6.10244e-005 to 6.10254e-005
Heightened Def Con from 6.10254e-005 to 6.10264e-005
Heightened Def Con from 6.10265e-005 to 6.10275e-005
Heightened Def Con from 6.10275e-005 to 6.10275e-005
Heightened Def Con from 6.10275e-005 to 6.10275e-005
Heightened Def Con from 6.10275e-005 to 6.10275e-005
Heightened Def Con from 6.10275e-005 +to 6.10275e-005
Heightened Def Con from 6.10275e-005 to 6.10275e-005
Heightened Def Con from 6.10275e-005 to 6.10275e-005
Heightened Def Con from 6.10275e-005 to 6.10275e-005
Heightened Def Con from 6.10275e-005 to 6.10285e-005
Heightened Def Con from 6.10285e-005 to 6.10285e-005
Heightened Def Con from 6.10285e-005 to 6.10286e-005
Heightened Def Con from 6.10286e-005 to 6.10287e-005
Heightened Def Con from 6.10287e-005 to 6.10297e-005
Heightened Def Con from 6.10297e-005 to 6.10297e-005
Heightened Def Con from 6.10297e-005 to 6.10297e-005
Heightened Def Con from 6.10297e-005 to 6.10307e-005
Heightened Def Con from 6.10307e-005 to 6.10317e-005
Heightened Def Con from 6.10317e-005 to 6.10318e-005
Heightened Def Con from 6.10318e-005 to 6.10318e-005
Heightened Def Con from 6.10318e-005 to 6.10318e-005
Heightened Def Con from 6.10318e-005 to 6.10319e-005
Heightened Def Con from 6.10319e-005 to 6.10319e-005
Heightened Def Con from 6.10319e-005 to 6.10321e-005
Heightened Def Con from 6.10321e-005 to 6.10322e-005
Heightened Def Con from 6.10322e-005 to 6.10322e-005
Heightened Def Con from 6.10322e-005 to 6.10332e-005
Heightened Def Con from 6.10332e-005 to 6.10342e-005
Heightened Def Con from 6.10342e-005 to 6.10342e-005
Heightened Def Con from 6.10342e-005 to 6.10342e-005
Heightened Def Con from 6.10342e-005 +to 6.10342e-005
Heightened Def Con from 6.10342e-005 to 6.10352e-005
Heightened Def Con from 6.10352e-005 to 6.10352e-005
Heightened Def Con from 6.10352e-005 to 6.10362e-005
Heightened Def Con from 6.10362e-005 to 6.10362e-005
Heightened Def Con from 6.10362e-005 to 6.10362e-005
Heightened Def Con from 6.10362e-005 +to 6.10362e-005
Heightened Def Con from 6.10362e-005 to 6.10362e-005
Heightened Def Con from 6.10362e-005 to 6.10363e-005
Heightened Def Con from 6.10363e-005 to 6.10363e-005
Heightened Def Con from 6.10363e-005 +to 6.10373e-005
Heightened Def Con from 6.10393e-005 +to 6.10393e-005
Heightened Def Con from 6.10393e-005 to 6.10393e-005
Heightened Def Con from 6.10393e-005 +to 6.10393e-005
Heightened Def Con from 6.10393e-005 to 6.10393e-005
Heightened Def Con from 6.10393e-005 to 6.10394e-005
Heightened Def Con from 6.10394e-005 to 6.10395e-005
Heightened Def Con from 6.10395e-005 to 6.10395e-005
Heightened Def Con from 6.10395e-005 to 6.10396e-005
Heightened Def Con from 6.10396e-005 to 6.10406e-005
Heightened Def Con from 6.10406e-005 +to 6.10416e-005
Heightened Def Con from 6.10424e-005 to 6.10424e-005
Heightened Def Con from 6.10424e-005 to 6.10424e-005
Heightened Def Con from 6.10424e-005 to 6.10425e-005
Heightened Def Con from 6.10425e-005 to 6.10425e-005
Heightened Def Con from 6.10425e-005 to 6.10435e-005
Heightened Def Con from 6.10435e-005 to 6.10436e-005
Heightened Def Con from 6.10436e-005 to 6.10446e-005
Heightened Def Con from 6.10447e-005 to 6.10457e-005
Heightened Def Con from 6.10457e-005 to 6.10457e-005
Heightened Def Con from 6.10457e-005 to 6.10457e-005
Heightened Def Con from 6.10457e-005 to 6.10467e-005
Heightened Def Con from 6.10468e-005 to 6.10469e-005
Heightened Def Con from 6.10469e-005 to 6.10479e-005
Heightened Def Con from 6.10479e-005 to 6.1048e-005
Heightened Def Con from 6.1048e-005 to 6.1048e-005
Heightened Def Con from 6.1048e-005 +to 6.1049e-005
Heightened Def Con from 6.1049e-005 to 6.1049e-005
Heightened Def Con from 6.1049e-005 to 6.1049e-005
Heightened Def Con from 6.1049e-005 to 6.1049e-005
Heightened Def Con from 6.1049e-005 to 6.1049e-005
Heightened Def Con from 6.1049e-005 +to 6.105e-005
Heightened Def Con from 6.105e-005 to 6.10501e-005
Heightened Def Con from 6.10501e-005 to 6.10511e-005
Heightened Def Con from 6.10511e-005 to 6.10531e-005
Heightened Def Con from 6.10531e-005 to 6.10532e-005
Heightened Def Con from 6.1054e-005 to 6.10541e-005
Heightened Def Con from 6.10541e-005 to 6.10541e-005
Heightened Def Con from 6.10541e-005 to 6.10541e-005
Heightened Def Con from 6.10541e-005 to 6.10543e-005
Heightened Def Con from 6.10543e-005 to 6.10543e-005
Heightened Def Con from 6.10543e-005 to 6.10553e-005
Heightened Def Con from 6.10553e-005 to 6.10554e-005
Heightened Def Con from 6.10554e-005 to 6.10554e-005
Heightened Def Con from 6.10554e-005 to 6.10555e-005
Heightened Def Con from 6.10555e-005 to 6.10565e-005
Heightened Def Con from 6.10585e-005 to 6.10585e-005
Heightened Def Con from 6.10585e-005 to 6.10585e-005
Heightened Def Con from 6.10585e-005 to 6.10585e-005
Heightened Def Con from 6.10585e-005 to 6.10585e-005
Heightened Def Con from 6.10585e-005 to 6.10585e-005
Heightened Def Con from 6.10585e-005 to 6.10585e-005
Heightened Def Con from 6.10585e-005 to 6.10595e-005
Heightened Def Con from 6.10597e-005 +to 6.10599e-005
Heightened Def Con from 6.10599e-005 to 6.106e-005
Heightened Def Con from 6.106e-005 to 6.1061e-005
Heightened Def Con from 6.10613e-005 to 6.10613e-005
Heightened Def Con from 6.10613e-005 +to 6.10613e-005
Heightened Def Con from 6.10613e-005 +to 6.10623e-005
Heightened Def Con from 6.10623e-005 to 6.10623e-005
Heightened Def Con from 6.10623e-005 to 6.10623e-005
Heightened Def Con from 6.10623e-005 to 6.10633e-005
Heightened Def Con from 6.10633e-005 to 6.10633e-005
Heightened Def Con from 6.10633e-005 to 6.10633e-005
Heightened Def Con from 6.10633e-005 to 6.10634e-005
Heightened Def Con from 6.10634e-005 to 6.10634e-005
Heightened Def Con from 6.10634e-005 to 6.10634e-005
Heightened Def Con from 6.10634e-005 to 6.10634e-005
Heightened Def Con from 6.10634e-005 to 6.10644e-005
Heightened Def Con from 6.10664e-005 to 6.10664e-005
Heightened Def Con from 6.10664e-005 to 6.10674e-005
Heightened Def Con from 6.10674e-005 to 6.10694e-005
Heightened Def Con from 6.10694e-005 to 6.10704e-005
Heightened Def Con from 6.10704e-005 to 6.10704e-005
Heightened Def Con from 6.10704e-005 to 6.10705e-005
Heightened Def Con from 6.10705e-005 +to 6.10706e-005
Heightened Def Con from 6.10706e-005 to 6.10706e-005
Heightened Def Con from 6.10706e-005 to 6.10707e-005
Heightened Def Con from 6.10707e-005 to 6.10707e-005
Heightened Def Con from 6.10707e-005 to 6.10707e-005
Heightened Def Con from 6.10707e-005 to 6.10707e-005
Heightened Def Con from 6.10707e-005 to 6.10708e-005
Heightened Def Con from 6.10708e-005 to 6.10718e-005
Heightened Def Con from 6.10718e-005 to 6.10718e-005
Heightened Def Con from 6.10718e-005 +to 6.10718e-005
Heightened Def Con from 6.10719e-005 to 6.10719e-005
Heightened Def Con from 6.10719e-005 +to 6.10719e-005
Heightened Def Con from 6.10719e-005 to 6.10729e-005
Heightened Def Con from 6.10729e-005 to 6.10729e-005
Heightened Def Con from 6.10729e-005 +to 6.1073e-005
Heightened Def Con from 6.1073e-005 to 6.1073e-005
Heightened Def Con from 6.1073e-005 to 6.10731e-005
Heightened Def Con from 6.10731e-005 to 6.10731e-005
Heightened Def Con from 6.10731e-005 to 6.10731e-005
Heightened Def Con from 6.10731e-005 to 6.10731e-005
Heightened Def Con from 6.10731e-005 to 6.10733e-005
Heightened Def Con from 6.10735e-005 to 6.10735e-005
Heightened Def Con from 6.10735e-005 to 6.10735e-005
Heightened Def Con from 6.10735e-005 to 6.10736e-005
Heightened Def Con from 6.10736e-005 to 6.10746e-005
Heightened Def Con from 6.10746e-005 to 6.10756e-005
Heightened Def Con from 6.10756e-005 to 6.10767e-005
Heightened Def Con from 6.10767e-005 to 6.10777e-005
Heightened Def Con from 6.10779e-005 +to 6.10789e-005
Heightened Def Con from 6.10789e-005 to 6.10789e-005
Heightened Def Con from 6.10789e-005 to 6.10789e-005
Heightened Def Con from 6.10789e-005 to 6.1079e-005
Heightened Def Con from 6.1079e-005 to 6.108e-005
Heightened Def Con from 6.10803e-005 to 6.10813e-005
Heightened Def Con from 6.10833e-005 to 6.10833e-005
Heightened Def Con from 6.10833e-005 to 6.10833e-005
Heightened Def Con from 6.10833e-005 to 6.10833e-005
Heightened Def Con from 6.10833e-005 +to 6.10843e-005
Heightened Def Con from 6.10868e-005 to 6.10868e-005
Heightened Def Con from 6.10868e-005 to 6.10868e-005
Heightened Def Con from 6.10868e-005 to 6.10868e-005
Heightened Def Con from 6.10868e-005 to 6.10868e-005
Heightened Def Con from 6.10868e-005 to 6.10868e-005
Heightened Def Con from 6.10868e-005 to 6.1087e-005
Heightened Def Con from 6.1087e-005 to 6.1088e-005
Heightened Def Con from 6.1088e-005 to 6.1089e-005
Heightened Def Con from 6.1089e-005 to 6.1089e-005
Heightened Def Con from 6.1089e-005 to 6.1089e-005
Heightened Def Con from 6.1089e-005 to 6.1089e-005
Heightened Def Con from 6.1089e-005 to 6.1089e-005
Heightened Def Con from 6.1089e-005 to 6.1089e-005
Heightened Def Con from 6.1089e-005 to 6.10891e-005
Heightened Def Con from 6.10891e-005 to 6.10892e-005
Heightened Def Con from 6.10893e-005 to 6.10893e-005
Heightened Def Con from 6.10893e-005 to 6.10893e-005
Heightened Def Con from 6.10893e-005 to 6.10903e-005
Heightened Def Con from 6.10903e-005 to 6.10903e-005
Heightened Def Con from 6.10903e-005 to 6.10903e-005
Heightened Def Con from 6.10903e-005 to 6.10903e-005
Heightened Def Con from 6.10903e-005 to 6.10903e-005
Heightened Def Con from 6.10903e-005 to 6.10903e-005
Heightened Def Con from 6.10903e-005 to 6.10903e-005
Heightened Def Con from 6.10903e-005 to 6.10904e-005
Heightened Def Con from 6.10907e-005 to 6.10907e-005
Heightened Def Con from 6.10907e-005 to 6.10907e-005
Heightened Def Con from 6.10907e-005 +to 6.10907e-005
Heightened Def Con from 6.10907e-005 to 6.10907e-005
Heightened Def Con from 6.10907e-005 to 6.10917e-005
Heightened Def Con from 6.10917e-005 to 6.10917e-005
Heightened Def Con from 6.10917e-005 +to 6.10919e-005
Heightened Def Con from 6.10919e-005 to 6.10919e-005
Heightened Def Con from 6.10919e-005 to 6.10919e-005
Heightened Def Con from 6.10919e-005 to 6.10919e-005
Heightened Def Con from 6.10919e-005 to 6.10929e-005
Heightened Def Con from 6.10929e-005 +to 6.10929e-005
Heightened Def Con from 6.10929e-005 to 6.10929e-005
Heightened Def Con from 6.10929e-005 to 6.10929e-005
Heightened Def Con from 6.10929e-005 to 6.10929e-005
Heightened Def Con from 6.10929e-005 to 6.10929e-005
Heightened Def Con from 6.10929e-005 to 6.10939e-005
Heightened Def Con from 6.10939e-005 to 6.10941e-005
Heightened Def Con from 6.10941e-005 to 6.10942e-005
Heightened Def Con from 6.10942e-005 to 6.10942e-005
Heightened Def Con from 6.10942e-005 to 6.10942e-005
Heightened Def Con from 6.10942e-005 to 6.10942e-005
Heightened Def Con from 6.10942e-005 +to 6.10942e-005
Heightened Def Con from 6.10942e-005 to 6.10942e-005
Heightened Def Con from 6.10942e-005 to 6.10943e-005
Heightened Def Con from 6.10943e-005 to 6.10944e-005
Heightened Def Con from 6.10944e-005 to 6.10944e-005
Heightened Def Con from 6.10944e-005 to 6.10945e-005
Heightened Def Con from 6.10945e-005 +to 6.10955e-005
Heightened Def Con from 6.1098e-005 to 6.1099e-005
Heightened Def Con from 6.1099e-005 to 6.1099e-005
Heightened Def Con from 6.1099e-005 to 6.1099e-005
Heightened Def Con from 6.1099e-005 to 6.1099e-005
Heightened Def Con from 6.1099e-005 +to 6.1099e-005
Heightened Def Con from 6.1099e-005 to 6.1099e-005
Heightened Def Con from 6.1099e-005 to 6.1099e-005
Heightened Def Con from 6.1099e-005 to 6.10992e-005
Heightened Def Con from 6.10994e-005 to 6.10994e-005
Heightened Def Con from 6.10994e-005 to 6.10994e-005
Heightened Def Con from 6.10994e-005 to 6.10994e-005
Heightened Def Con from 6.10994e-005 to 6.10994e-005
Heightened Def Con from 6.10994e-005 to 6.10994e-005
Heightened Def Con from 6.10994e-005 to 6.10994e-005
Heightened Def Con from 6.10994e-005 +to 6.10994e-005
Heightened Def Con from 6.10994e-005 to 6.10996e-005
Heightened Def Con from 6.10996e-005 to 6.11006e-005
Heightened Def Con from 6.11006e-005 to 6.11007e-005
Heightened Def Con from 6.11007e-005 to 6.11007e-005
Heightened Def Con from 6.11007e-005 to 6.11007e-005
Heightened Def Con from 6.11007e-005 to 6.11007e-005
Heightened Def Con from 6.11007e-005 to 6.11008e-005
Heightened Def Con from 6.11008e-005 to 6.11009e-005
Heightened Def Con from 6.11009e-005 to 6.11009e-005
Heightened Def Con from 6.11009e-005 to 6.1101e-005
Heightened Def Con from 6.1101e-005 to 6.11011e-005
Heightened Def Con from 6.11011e-005 to 6.11012e-005
Heightened Def Con from 6.11012e-005 to 6.11022e-005
Heightened Def Con from 6.11022e-005 to 6.11022e-005
Heightened Def Con from 6.11022e-005 +to 6.11023e-005
Heightened Def Con from 6.11023e-005 to 6.11023e-005
Heightened Def Con from 6.11023e-005 to 6.11023e-005
Heightened Def Con from 6.11023e-005 +to 6.11033e-005
Heightened Def Con from 6.11036e-005 to 6.11037e-005
Heightened Def Con from 6.11037e-005 +to 6.11037e-005
Heightened Def Con from 6.11037e-005 to 6.11038e-005
Heightened Def Con from 6.11039e-005 to 6.11039e-005
Heightened Def Con from 6.11039e-005 to 6.11039e-005
Heightened Def Con from 6.11039e-005 +to 6.11039e-005
Heightened Def Con from 6.11039e-005 to 6.11039e-005
Heightened Def Con from 6.11039e-005 to 6.11039e-005
Heightened Def Con from 6.11039e-005 to 6.11049e-005
Heightened Def Con from 6.11049e-005 +to 6.1105e-005
Heightened Def Con from 6.1105e-005 to 6.1105e-005
Heightened Def Con from 6.1105e-005 to 6.1106e-005
Heightened Def Con from 6.1106e-005 to 6.1107e-005
Heightened Def Con from 6.1107e-005 +to 6.1107e-005
Heightened Def Con from 6.1107e-005 to 6.1107e-005
Heightened Def Con from 6.1107e-005 +to 6.11072e-005
Heightened Def Con from 6.11072e-005 to 6.11082e-005
Heightened Def Con from 6.11082e-005 +to 6.11083e-005
Heightened Def Con from 6.11083e-005 to 6.11083e-005
Heightened Def Con from 6.11083e-005 to 6.11083e-005
Heightened Def Con from 6.11083e-005 +to 6.11085e-005
Heightened Def Con from 6.11085e-005 to 6.11085e-005
Heightened Def Con from 6.11085e-005 to 6.11086e-005
Heightened Def Con from 6.11086e-005 to 6.11086e-005
Heightened Def Con from 6.11086e-005 to 6.11086e-005
Heightened Def Con from 6.11086e-005 to 6.11086e-005
Heightened Def Con from 6.11086e-005 to 6.11086e-005
Heightened Def Con from 6.11086e-005 to 6.11086e-005
Heightened Def Con from 6.11086e-005 to 6.11086e-005
Heightened Def Con from 6.11086e-005 to 6.11096e-005
Heightened Def Con from 6.11096e-005 to 6.11096e-005
Heightened Def Con from 6.11097e-005 to 6.11097e-005
Heightened Def Con from 6.11097e-005 to 6.11097e-005
Heightened Def Con from 6.11097e-005 to 6.11098e-005
Heightened Def Con from 6.11098e-005 to 6.11098e-005
Heightened Def Con from 6.11098e-005 to 6.11099e-005
Heightened Def Con from 6.111e-005 to 6.111e-005
Heightened Def Con from 6.111e-005 to 6.111e-005
Heightened Def Con from 6.111e-005 to 6.111e-005
Heightened Def Con from 6.111e-005 to 6.11101e-005
Heightened Def Con from 6.11101e-005 to 6.11101e-005
Heightened Def Con from 6.11101e-005 to 6.11111e-005
Heightened Def Con from 6.11111e-005 to 6.11111e-005
Heightened Def Con from 6.11111e-005 to 6.11111e-005
Heightened Def Con from 6.11111e-005 to 6.11111e-005
Heightened Def Con from 6.11111e-005 to 6.11111e-005
Heightened Def Con from 6.11111e-005 to 6.11111e-005
Heightened Def Con from 6.11111e-005 to 6.11111e-005
Heightened Def Con from 6.11111e-005 to 6.11121e-005
Heightened Def Con from 6.11121e-005 to 6.11121e-005
Heightened Def Con from 6.11121e-005 to 6.11121e-005
Heightened Def Con from 6.11121e-005 to 6.11122e-005
Heightened Def Con from 6.11122e-005 to 6.11132e-005
Heightened Def Con from 6.11132e-005 to 6.11132e-005
Heightened Def Con from 6.11132e-005 +to 6.11144e-005
Heightened Def Con from 6.11144e-005 to 6.11154e-005
Heightened Def Con from 6.11154e-005 to 6.11164e-005
Heightened Def Con from 6.11164e-005 to 6.11164e-005
Heightened Def Con from 6.11164e-005 +to 6.11165e-005
Heightened Def Con from 6.11165e-005 to 6.11165e-005
Heightened Def Con from 6.11165e-005 to 6.11165e-005
Heightened Def Con from 6.11165e-005 +to 6.11175e-005
Heightened Def Con from 6.11178e-005 to 6.11178e-005
Heightened Def Con from 6.11178e-005 +to 6.11188e-005
Heightened Def Con from 6.11188e-005 to 6.11188e-005
Heightened Def Con from 6.11188e-005 to 6.11188e-005
Heightened Def Con from 6.11188e-005 to 6.1119e-005
Heightened Def Con from 6.1119e-005 +to 6.11191e-005
Heightened Def Con from 6.11191e-005 to 6.11201e-005
Heightened Def Con from 6.11208e-005 to 6.11208e-005
Heightened Def Con from 6.11208e-005 to 6.11209e-005
Heightened Def Con from 6.11209e-005 to 6.1121e-005
Heightened Def Con from 6.1121e-005 to 6.1122e-005
Heightened Def Con from 6.1152e-005 +to 6.1152e-005
Heightened Def Con from 6.1152e-005 to 6.1152e-005
Heightened Def Con from 6.1152e-005 to 6.1153e-005
Heightened Def Con from 6.1153e-005 to 6.1153e-005
Heightened Def Con from 6.1153e-005 to 6.1153e-005
Heightened Def Con from 6.1153e-005 to 6.1153e-005
Heightened Def Con from 6.1153e-005 to 6.1153e-005
Heightened Def Con from 6.1153e-005 to 6.1153e-005
Heightened Def Con from 6.1153e-005 to 6.1153e-005
Heightened Def Con from 6.1153e-005 to 6.1153e-005
Heightened Def Con from 6.1153e-005 to 6.1154e-005
Heightened Def Con from 6.1154e-005 to 6.11542e-005
Heightened Def Con from 6.11542e-005 to 6.11542e-005
Heightened Def Con from 6.11542e-005 to 6.11542e-005
Heightened Def Con from 6.11542e-005 to 6.11543e-005
Heightened Def Con from 6.1155e-005 +to 6.11552e-005
Heightened Def Con from 6.11552e-005 to 6.11552e-005
Heightened Def Con from 6.11552e-005 to 6.11552e-005
Heightened Def Con from 6.11552e-005 to 6.11552e-005
Heightened Def Con from 6.11552e-005 to 6.11552e-005
Heightened Def Con from 6.11552e-005 to 6.11552e-005
Heightened Def Con from 6.11552e-005 to 6.11552e-005
Heightened Def Con from 6.11552e-005 +to 6.11562e-005
Heightened Def Con from 6.11562e-005 to 6.11572e-005
Heightened Def Con from 6.11592e-005 to 6.11592e-005
Heightened Def Con from 6.11592e-005 to 6.11592e-005
Heightened Def Con from 6.11592e-005 to 6.11592e-005
Heightened Def Con from 6.11592e-005 to 6.11593e-005
Heightened Def Con from 6.11593e-005 to 6.11593e-005
Heightened Def Con from 6.11593e-005 to 6.11594e-005
Heightened Def Con from 6.11594e-005 to 6.11594e-005
Heightened Def Con from 6.11594e-005 to 6.11604e-005
Heightened Def Con from 6.11624e-005 to 6.11624e-005
Heightened Def Con from 6.11624e-005 +to 6.11634e-005
Heightened Def Con from 6.11654e-005 to 6.11654e-005
Heightened Def Con from 6.11654e-005 to 6.11654e-005
Heightened Def Con from 6.11654e-005 +to 6.11664e-005
Heightened Def Con from 6.11664e-005 to 6.11664e-005
Heightened Def Con from 6.11664e-005 to 6.11664e-005
Heightened Def Con from 6.11664e-005 to 6.11674e-005
Heightened Def Con from 6.11674e-005 +to 6.11674e-005
Heightened Def Con from 6.11674e-005 