Circuit: * C:\Users\user\Desktop\python_spice\cfl_lamp\cfl_equiv.asc

Direct Newton iteration for .op point succeeded.

Date: Mon Feb 01 22:50:33 2021
Total elapsed time: 0.195 seconds.

tnom = 27
temp = 27
method = modified trap
totiter = 650
traniter = 636
tranpoints = 160
accept = 122
rejected = 38
matrix size = 5
fillins = 5
solver = Normal
Matrix Compiler1: 398 bytes object code size  0.1/0.1/[0.0]
Matrix Compiler2:      34 opcodes  0.1/[0.1]/0.1

