Circuit: * C:\Users\user\Desktop\python_spice\pv_single_diode\pv.asc

