Circuit: * C:\Users\user\Desktop\python_spice\pv_single_diode\pv.asc


Date: Thu Oct 29 10:59:37 2020
Total elapsed time: 0.121 seconds.

tnom = 27
temp = 27
method = trap
totiter = 213
traniter = 0
tranpoints = 0
accept = 0
rejected = 0
matrix size = 3
fillins = 0
solver = Normal
Matrix Compiler1: 50 bytes object code size  0.1/0.0/[0.0]
Matrix Compiler2: 175 bytes object code size  0.1/0.1/[0.1]

