Circuit: * C:\Users\user\Desktop\python_spice\root_con\practice_optpy.asc

.OP point found by inspection.

Date: Fri Feb 07 15:02:25 2020
Total elapsed time: 0.234 seconds.

tnom = 27
temp = 27
method = modified trap
totiter = 2968
traniter = 2968
tranpoints = 1485
accept = 1218
rejected = 267
matrix size = 3
fillins = 0
solver = Normal
Matrix Compiler1:       3 opcodes  0.1/[0.0]/0.1
Matrix Compiler2: 175 bytes object code size  0.1/0.1/[0.1]

