Circuit: * C:\Users\user\Desktop\python_spice\_trafo\trafo_single.asc

.OP point found by inspection.

Date: Thu Feb 11 09:52:26 2021
Total elapsed time: 0.024 seconds.

tnom = 27
temp = 27
method = modified trap
totiter = 2134
traniter = 2134
tranpoints = 1068
accept = 1067
rejected = 1
matrix size = 8
fillins = 4
solver = Normal
Matrix Compiler1: 460 bytes object code size  0.1/0.1/[0.1]
Matrix Compiler2: off  [0.1]/0.1/0.1

