Circuit: * C:\Users\user\Desktop\python_spice\_trafo\trafo_single.asc

.OP point found by inspection.

Date: Wed Nov 04 09:54:56 2020
Total elapsed time: 0.145 seconds.

tnom = 27
temp = 27
method = modified trap
totiter = 2148
traniter = 2148
tranpoints = 1075
accept = 1073
rejected = 2
matrix size = 8
fillins = 2
solver = Normal
Matrix Compiler1: 380 bytes object code size  0.1/0.1/[0.1]
Matrix Compiler2: 574 bytes object code size  0.1/0.2/[0.1]

