Circuit: * C:\Users\user\Desktop\python_spice\_trafo\trafo_single.asc

