Circuit: * C:\Users\user\Desktop\python_spice\_trafo\trafo_single.asc

.OP point found by inspection.

Date: Wed Feb 10 11:02:39 2021
Total elapsed time: 0.214 seconds.

tnom = 27
temp = 27
method = modified trap
totiter = 2150
traniter = 2150
tranpoints = 1076
accept = 1075
rejected = 1
matrix size = 8
fillins = 2
solver = Normal
Matrix Compiler1: 380 bytes object code size  0.2/0.1/[0.1]
Matrix Compiler2: 574 bytes object code size  0.1/0.2/[0.1]

