Circuit: * C:\Users\user\Desktop\python_spice\_trafo\trafo_single.asc

.OP point found by inspection.

Date: Thu Feb 11 16:49:11 2021
Total elapsed time: 0.128 seconds.

tnom = 27
temp = 27
method = modified trap
totiter = 2146
traniter = 2146
tranpoints = 1074
accept = 1072
rejected = 2
matrix size = 8
fillins = 4
solver = Normal
Matrix Compiler1: 460 bytes object code size  0.1/0.1/[0.1]
Matrix Compiler2: 608 bytes object code size  0.1/0.1/[0.1]

