Circuit: * C:\Users\user\Desktop\python_spice\_trafo\trafo_single.asc

.OP point found by inspection.

Date: Wed Feb 10 11:50:57 2021
Total elapsed time: 0.222 seconds.

tnom = 27
temp = 27
method = modified trap
totiter = 2140
traniter = 2140
tranpoints = 1071
accept = 1069
rejected = 2
matrix size = 8
fillins = 0
solver = Normal
Matrix Compiler1: 300 bytes object code size  0.1/0.1/[0.1]
Matrix Compiler2: 540 bytes object code size  0.1/0.1/[0.1]

