<<<<<<< HEAD
Circuit: * C:\Users\user\Desktop\python_spice\_trafo\trafo_single.asc

.OP point found by inspection.

Date: Tue Nov 03 22:05:17 2020
Total elapsed time: 1.628 seconds.
=======

   --- Expanded Deck Component Count ---
K's 1
L's 4
R's 3
V's 1
tot: 9


    --- Expanded Netlist ---
* C:\Users\user\Desktop\python_spice\_trafo\trafo_single.asc
r1 n001 n002 1.0
l1 n002 n003 0.01
v1 n001 0 sine(0 3398.2945299964877 60)
r2 n003 0 1000.0
r3 n005 0 100
l2 n003 0 1.0
l3 n004 0 0.01
l4 n004 n005 0.2m
.tran 6.510416666666664e-05 0.04993489583333333 0
k l2 l3 1
.options
.end

.OP point found by inspection.

<<<<<<< HEAD
Date: Sun Nov 01 17:06:02 2020
Total elapsed time: 0.157 seconds.
=======
Date: Wed Oct 28 23:05:22 2020
Total elapsed time: 0.297 seconds.
>>>>>>> c1404e8e3b2283350788a74cc47ac71bd79f10cc
>>>>>>> 0c9f29f3108de453650eea3c2fcbf2f7fd0376b9

tnom = 27
temp = 27
method = modified trap
<<<<<<< HEAD
totiter = 100078
traniter = 100078
tranpoints = 50040
accept = 50039
rejected = 1
matrix size = 8
fillins = 0
solver = Normal
Matrix Compiler1: 300 bytes object code size  0.1/0.1/[0.1]
Matrix Compiler2: off  [0.1]/0.1/0.1
=======
totiter = 2150
traniter = 2150
tranpoints = 1076
accept = 1075
rejected = 1
matrix size = 8
fillins = 0
solver = Normal
<<<<<<< HEAD
Matrix Compiler1:      18 opcodes  0.2/[0.1]/0.2
Matrix Compiler2: off  [0.1]/0.2/0.1
=======
Matrix Compiler1:      18 opcodes  0.3/[0.2]/0.2
Matrix Compiler2: 540 bytes object code size  0.2/0.3/[0.2]
>>>>>>> c1404e8e3b2283350788a74cc47ac71bd79f10cc
>>>>>>> 0c9f29f3108de453650eea3c2fcbf2f7fd0376b9

