Circuit: * C:\Users\user\Desktop\python_spice\_trafo\trafo_single.asc

.OP point found by inspection.

Date: Wed Nov 04 11:05:04 2020
Total elapsed time: 0.211 seconds.

tnom = 27
temp = 27
method = modified trap
totiter = 2150
traniter = 2150
tranpoints = 1076
accept = 1075
rejected = 1
matrix size = 8
fillins = 2
solver = Normal
Matrix Compiler1:      22 opcodes  0.2/[0.1]/0.1
Matrix Compiler2: 574 bytes object code size  0.1/0.1/[0.1]

