Circuit: * C:\Users\user\Desktop\python_spice\_trafo\trafo_single.asc

.OP point found by inspection.

Date: Mon Feb 01 20:17:34 2021
Total elapsed time: 1.292 seconds.

tnom = 27
temp = 27
method = modified trap
totiter = 100078
traniter = 100078
tranpoints = 50040
accept = 50039
rejected = 1
matrix size = 8
fillins = 0
solver = Normal
Matrix Compiler1:      18 opcodes  0.1/[0.1]/0.1
Matrix Compiler2: 540 bytes object code size  0.2/0.2/[0.1]

