Circuit: * C:\Users\user\Desktop\python_spice\_trafo\trafo_single.asc

.OP point found by inspection.

Date: Tue Nov 03 22:05:17 2020
Total elapsed time: 1.628 seconds.

tnom = 27
temp = 27
method = modified trap
totiter = 100078
traniter = 100078
tranpoints = 50040
accept = 50039
rejected = 1
matrix size = 8
fillins = 0
solver = Normal
Matrix Compiler1: 300 bytes object code size  0.1/0.1/[0.1]
Matrix Compiler2: off  [0.1]/0.1/0.1

