Circuit: * C:\Users\user\Desktop\python_spice\validate_trafo\trafo_single.asc

.OP point found by inspection.

Date: Fri Oct 23 11:34:07 2020
Total elapsed time: 8.566 seconds.

tnom = 27
temp = 27
method = modified trap
totiter = 1000062
traniter = 1000062
tranpoints = 500032
accept = 500031
rejected = 1
matrix size = 8
fillins = 0
solver = Normal
Matrix Compiler1: 300 bytes object code size  0.1/0.1/[0.1]
Matrix Compiler2: 540 bytes object code size  0.2/0.2/[0.1]

