Circuit: * C:\Users\user\Desktop\python_spice\validate_trafo\trafo_single.asc

.OP point found by inspection.

Date: Mon Feb 01 20:24:22 2021
Total elapsed time: 8.713 seconds.

tnom = 27
temp = 27
method = modified trap
totiter = 1000062
traniter = 1000062
tranpoints = 500032
accept = 500031
rejected = 1
matrix size = 8
fillins = 0
solver = Normal
Matrix Compiler1: 300 bytes object code size  0.1/0.1/[0.1]
Matrix Compiler2: off  [0.1]/0.1/0.1

